* AD645 SPICE Macro-model                   4/92, Rev. B
*                                           JCB / PMI
*
* Revision History:
*     Rev. B:  Converted model to include noise analysis.
*
* Copyright 1990 by Analog Devices, Inc.
*
* Refer to "README.DOC" file for License Statement.  Use of this model
* indicates your acceptance with the terms and provisions in the License Statement.
*
* Node assignments
*                non-inverting input
*                | inverting input
*                | | positive supply
*                | | |  negative supply
*                | | |  |  output
*                | | |  |  |
.SUBCKT AD645    1 2 99 50 30
*
* INPUT STAGE & POLE AT 40 MHZ
*
R3   5  50    2.097
R4   6  50    2.097
CIN  1   2    1E-12
C2   5   6    9.48E-10
I1   99  4    100E-3
IOS  1   2    0.05E-12
EOS  65  1    POLY(1)  17 24  100E-6  1
J1   5   2    4   JX
J2   6   7    4   JX
EN   7  65    43  0  1
GN1  0   1    47  0  1E-6
GN2  0   2    61  0  1E-6
GB1  2  50    POLY(3) 4,2 5,2 50,2 0 1E-12 1E-12 1E-12
GB2  7  50    POLY(3) 4,7 6,7 50,7 0 1E-12 1E-12 1E-12
*
EREF 98  0    24  0   1
*
* VOLTAGE NOISE GENERATOR
*
VN1  41  0    DC 2
RS1  41 42    8E3
RS2  42 43    1.2E9
CS1  42 43    398E-11
RS3  43 44    1.2E9
CS2  43 44    398E-11
RS4  44 45    8E3
VN2  0  45    DC 2
*
* CURRENT NOISE GENERATOR
*
VN3  46  0    DC 2
RN5  46 47    41.5
RN6  47 48    41.5
VN4  0  48    DC 2
*
* CURRENT NOISE GENERATOR
*
VN5  60  0    DC 2
RN7  60 61    41.5
RN8  61 62    41.5
VN6  0  62    DC 2
*
* SECOND STAGE & POLE AT 0.48 HZ
*
R5   9  98    6.632E6
C3   9  98    5.00E-8
G1   98  9    5  6  4.769E-1
V2   99  8    3.6
V3   10 50    3.6
D1   9   8    DX
D2   10  9    DX
*
* NEGATIVE ZERO AT 15 MHZ
*
R6   11 12     1E6
C4   11 12     -10.6E-15
R7   12 98     1
E2   11 98     9  24  1E6
*
* POLE AT 40 MHZ
*
R8   13 98     1E3
C5   13 98     3.98E-12
G2   98 13     12 24  1E-3
*
* POLE AT 40 MHZ
*
R9   14 98     1E3
C6   14 98     3.98E-12
G3   98 14     13 24  1E-3
*
* POLE AT 40 MHZ
*
R10  15 98     1E3
C7   15 98     3.98E-12
G4   98 15     14 24  1E-3
*
* COMMON-MODE GAIN NETWORK WITH ZERO AT 60 HZ
*
R11  16 17     1E6
C8   16 17     2.65E-9
R12  17 98     1
E3   16 98     POLY(2) 1  98  2  98  0  1.58  1.58
*
* POLE AT 40 MHZ
*
R13  18 98     1E3
C9   18 98     3.98E-12
G5   98 18     15 24  1E-3
*
* OUTPUT STAGE
*
R14  24 99     2000E3
R15  24 50     2000E3
ISY  99 50     -97E-3
R16  29 99     360
R17  29 50     360
L1   29 30     1E-8
G6   27 50     18 29  2.78E-3
G7   28 50     29 18  2.78E-3
G8   29 99     99 18  2.78E-3
G9   50 29     18 50  2.78E-3
V4   25 29     2.0
V5   29 26     2.0
D3   18 25     DX
D4   26 18     DX
D5   99 27     DX
D6   99 28     DX
D7   50 27     DY
D8   50 28     DY
F1   29  0     V4  1
F2   0  29     V5  1
*
* MODELS USED
*
.MODEL JX PJF(BETA=1.137  VTO=-2.000  IS=0.35E-12 RD=0.1
+ RS=0.1 CGD=1E-15 CGS=1E-15)
.MODEL DX   D(IS=1E-15 RS=10 CJO=1E-15)
.MODEL DY   D(IS=1E-15 BV=50 RS=10 CJO=1E-15)
.MODEL DEN  D(IS=1E-12 RS=7409.6 KF=2.051E-15 AF=1)
.MODEL DIN  D(IS=1E-12 RS=41.5 KF=0 AF=1)
.ENDS AD645

* AD645A SPICE Macro-model                  4/92, Rev. B
*                                           JCB / PMI
*
* Revision History:
*     Rev. B:  Converted model to include noise analysis.
*
* This version of the AD645 model simulates the worst case
* parameters of the 'A' grade.  The worst case parameters
* used correspond to those in the data sheet.
*
* Copyright 1990 by Analog Devices, Inc.
*
* Refer to "README.DOC" file for License Statement.  Use of this model
* indicates your acceptance with the terms and provisions in the License Statement.
*
* Node assignments
*                non-inverting input
*                | inverting input
*                | | positive supply
*                | | |  negative supply
*                | | |  |  output
*                | | |  |  |
.SUBCKT AD645A   1 2 99 50 30
*
* INPUT STAGE & POLE AT 40 MHZ
*
R3   5  50    1.049
R4   6  50    1.049
CIN  1   2    1E-12
C2   5   6    1.90E-9
I1   99  4    100E-3
IOS  1   2    0.5E-12
EOS  65  1    POLY(1)  17 24  500E-6  1
J1   5   2    4   JX
J2   6   7    4   JX
EN   7  65    43  0  1
GN1  0   1    47  0  1E-6
GN2  0   2    61  0  1E-6
GB1  2  50    POLY(3) 4,2 5,2 50,2 0 1E-12 1E-12 1E-12
GB2  7  50    POLY(3) 4,7 6,7 50,7 0 1E-12 1E-12 1E-12
*
EREF 98  0    24  0   1
*
* VOLTAGE NOISE GENERATOR
*
VN1  41  0    DC 2
RS1  41 42    11.8E3
RS2  42 43    1.2E9
CS1  42 43    79.8E-11
RS3  43 44    1.2E9
CS2  43 44    79.8E-11
RS4  44 45    11.8E3
VN2  0  45    DC 2
*
* CURRENT NOISE GENERATOR
*
VN3  46  0    DC 2
RN5  46 47    144
RN6  47 48    144
VN4  0  48    DC 2
*
* CURRENT NOISE GENERATOR
*
VN5  60  0    DC 2
RN7  60 61    144
RN8  61 62    144
VN6  0  62    DC 2
*
* SECOND STAGE & POLE AT 3 HZ
*
R5   9  98    5.26E5
C3   9  98    1.00E-7
G1   98  9    5  6  9.53E-1
V2   99  8    4.7
V3   10 50    4.7
D1   9   8    DX
D2   10  9    DX
*
* NEGATIVE ZERO AT 15 MHZ
*
R6   11 12     1E6
C4   11 12     -10.6E-15
R7   12 98     1
E2   11 98     9  24  1E6
*
* POLE AT 40 MHZ
*
R8   13 98     1E3
C5   13 98     3.98E-12
G2   98 13     12 24  1E-3
*
* POLE AT 40 MHZ
*
R9   14 98     1E3
C6   14 98     3.98E-12
G3   98 14     13 24  1E-3
*
* POLE AT 40 MHZ
*
R10  15 98     1E3
C7   15 98     3.98E-12
G4   98 15     14 24  1E-3
*
* COMMON-MODE GAIN NETWORK WITH ZERO AT 600 HZ
*
R11  16 17     1E6
C8   16 17     2.65E-10
R12  17 98     1
E3   16 98     POLY(2) 1  98  2  98  0  15.8  15.8
*
* POLE AT 40 MHZ
*
R13  18 98     1E3
C9   18 98     3.98E-12
G5   98 18     15 24  1E-3
*
* OUTPUT STAGE
*
R14  24 99     2000E3
R15  24 50     2000E3
ISY  99 50     -96.5E-3
R16  29 99     360
R17  29 50     360
L1   29 30     1E-8
G6   27 50     18 29  2.78E-3
G7   28 50     29 18  2.78E-3
G8   29 99     99 18  2.78E-3
G9   50 29     18 50  2.78E-3
V4   25 29     2.0
V5   29 26     2.0
D3   18 25     DX
D4   26 18     DX
D5   99 27     DX
D6   99 28     DX
D7   50 27     DY
D8   50 28     DY
F1   29  0     V4  1
F2   0  29     V5  1
*
* MODELS USED
*
.MODEL JX PJF(BETA=4.54  VTO=-2.000  IS=2.5E-12 RD=0.1
+ RS=0.1 CGD=1E-15 CGS=1E-15)
.MODEL DX   D(IS=1E-15 RS=10 CJO=1E-15)
.MODEL DY   D(IS=1E-15 BV=50 RS=10 CJO=1E-15)
.MODEL DEN  D(IS=1E-12 RS=7409.6 KF=2.051E-15 AF=1)
.MODEL DIN  D(IS=1E-12 RS=41.5 KF=0 AF=1)
.ENDS AD645A

* AD645B SPICE Macro-model                  4/92, Rev. B
*                                           JCB / PMI
*
* Revision History:
*     Rev. B:  Converted model to include noise analysis.
*
* This version of the AD645 model simulates the worst case
* parameters of the 'B' grade.  The worst case parameters
* used correspond to those in the data sheet.
*
* Copyright 1990 by Analog Devices, Inc.
*
* Refer to "README.DOC" file for License Statement.  Use of this model
* indicates your acceptance with the terms and provisions in the License Statement.
*
* Node assignments
*                non-inverting input
*                | inverting input
*                | | positive supply
*                | | |  negative supply
*                | | |  |  output
*                | | |  |  |
.SUBCKT AD645B   1 2 99 50 30
*
* INPUT STAGE & POLE AT 40 MHZ
*
R3   5  50    1.049
R4   6  50    1.049
CIN  1   2    1E-12
C2   5   6    1.90E-9
I1   99  4    100E-3
IOS  1   2    0.25E-12
EOS  65  1    POLY(1)  17 24  250E-6  1
J1   5   2    4   JX
J2   6   7    4   JX
EN   7  65    43  0  1
GN1  0   1    47  0  1E-6
GN2  0   2    61  0  1E-6
GB1  2  50    POLY(3) 4,2 5,2 50,2 0 1E-12 1E-12 1E-12
GB2  7  50    POLY(3) 4,7 6,7 50,7 0 1E-12 1E-12 1E-12
*
EREF 98  0    24  0   1
*
* VOLTAGE NOISE GENERATOR
*
VN1  41  0    DC 2
RS1  41 42    11.8E3
RS2  42 43    1.2E9
CS1  42 43    100E-11
RS3  43 44    1.2E9
CS2  43 44    100E-11
RS4  44 45    11.8E3
VN2  0  45    DC 2
*
* CURRENT NOISE GENERATOR
*
VN3  46  0    DC 2
RN5  46 47    75.4
RN6  47 48    75.4
VN4  0  48    DC 2
*
* CURRENT NOISE GENERATOR
*
VN5  60  0    DC 2
RN7  60 61    75.4
RN8  61 62    75.4
VN6  0  62    DC 2
*
* SECOND STAGE & POLE AT 1.5 HZ
*
R5   9  98    1.05E6
C3   9  98    1.00E-7
G1   98  9    5  6  9.53E-1
V2   99  8    4.7
V3   10 50    4.7
D1   9   8    DX
D2   10  9    DX
*
* NEGATIVE ZERO AT 15 MHZ
*
R6   11 12     1E6
C4   11 12     -10.6E-15
R7   12 98     1
E2   11 98     9  24  1E6
*
* POLE AT 40 MHZ
*
R8   13 98     1E3
C5   13 98     3.98E-12
G2   98 13     12 24  1E-3
*
* POLE AT 40 MHZ
*
R9   14 98     1E3
C6   14 98     3.98E-12
G3   98 14     13 24  1E-3
*
* POLE AT 40 MHZ
*
R10  15 98     1E3
C7   15 98     3.98E-12
G4   98 15     14 24  1E-3
*
* COMMON-MODE GAIN NETWORK WITH ZERO AT 380 HZ
*
R11  16 17     1E6
C8   16 17     4.198E-10
R12  17 98     1
E3   16 98     POLY(2) 1  98  2  98  0  10  10
*
* POLE AT 40 MHZ
*
R13  18 98     1E3
C9   18 98     3.98E-12
G5   98 18     15 24  1E-3
*
* OUTPUT STAGE
*
R14  24 99     2000E3
R15  24 50     2000E3
ISY  99 50     -96.5E-3
R16  29 99     360
R17  29 50     360
L1   29 30     1E-8
G6   27 50     18 29  2.78E-3
G7   28 50     29 18  2.78E-3
G8   29 99     99 18  2.78E-3
G9   50 29     18 50  2.78E-3
V4   25 29     2.0
V5   29 26     2.0
D3   18 25     DX
D4   26 18     DX
D5   99 27     DX
D6   99 28     DX
D7   50 27     DY
D8   50 28     DY
F1   29  0     V4  1
F2   0  29     V5  1
*
* MODELS USED
*
.MODEL JX PJF(BETA=4.54  VTO=-2.000  IS=1.5E-12 RD=0.1
+ RS=0.1 CGD=1E-15 CGS=1E-15)
.MODEL DX   D(IS=1E-15 RS=10 CJO=1E-15)
.MODEL DY   D(IS=1E-15 BV=50 RS=10 CJO=1E-15)
.MODEL DEN  D(IS=1E-12 RS=7409.6 KF=2.051E-15 AF=1)
.MODEL DIN  D(IS=1E-12 RS=41.5 KF=0 AF=1)
.ENDS AD645B

* AD645J SPICE Macro-model                  4/92, Rev. B
*                                           JCB / PMI
*
* Revision History:
*     Rev. B:  Converted model to include noise analysis.
*
* This version of the AD645 model simulates the worst case
* parameters of the 'J' grade.  The worst case parameters
* used correspond to those in the data sheet.
*
* Copyright 1990 by Analog Devices, Inc.
*
* Refer to "README.DOC" file for License Statement.  Use of this model
* indicates your acceptance with the terms and provisions in the License Statement.
*
* Node assignments
*                non-inverting input
*                | inverting input
*                | | positive supply
*                | | |  negative supply
*                | | |  |  output
*                | | |  |  |
.SUBCKT AD645J   1 2 99 50 30
*
* INPUT STAGE & POLE AT 40 MHZ
*
R3   5  50    1.049
R4   6  50    1.049
CIN  1   2    1E-12
C2   5   6    1.90E-9
I1   99  4    100E-3
IOS  1   2    0.5E-12
EOS  65  1    POLY(1)  17 24  500E-6  1
J1   5   2    4   JX
J2   6   7    4   JX
EN   7  65    43  0  1
GN1  0   1    47  0  1E-6
GN2  0   2    61  0  1E-6
GB1  2  50    POLY(3) 4,2 5,2 50,2 0 1E-12 1E-12 1E-12
GB2  7  50    POLY(3) 4,7 6,7 50,7 0 1E-12 1E-12 1E-12
*
EREF 98  0    24  0   1
*
* VOLTAGE NOISE GENERATOR
*
VN1  41  0    DC 2
RS1  41 42    11.8E3
RS2  42 43    1.2E9
CS1  42 43    79.8E-11
RS3  43 44    1.2E9
CS2  43 44    79.8E-11
RS4  44 45    11.8E3
VN2  0  45    DC 2
*
* CURRENT NOISE GENERATOR
*
VN3  46  0    DC 2
RN5  46 47    144
RN6  47 48    144
VN4  0  48    DC 2
*
* CURRENT NOISE GENERATOR
*
VN5  60  0    DC 2
RN7  60 61    144
RN8  61 62    144
VN6  0  62    DC 2
*
* SECOND STAGE & POLE AT 3 HZ
*
R5   9  98    5.26E5
C3   9  98    1.00E-7
G1   98  9    5  6  9.53E-1
V2   99  8    4.7
V3   10 50    4.7
D1   9   8    DX
D2   10  9    DX
*
* NEGATIVE ZERO AT 15 MHZ
*
R6   11 12     1E6
C4   11 12     -10.6E-15
R7   12 98     1
E2   11 98     9  24  1E6
*
* POLE AT 40 MHZ
*
R8   13 98     1E3
C5   13 98     3.98E-12
G2   98 13     12 24  1E-3
*
* POLE AT 40 MHZ
*
R9   14 98     1E3
C6   14 98     3.98E-12
G3   98 14     13 24  1E-3
*
* POLE AT 40 MHZ
*
R10  15 98     1E3
C7   15 98     3.98E-12
G4   98 15     14 24  1E-3
*
* COMMON-MODE GAIN NETWORK WITH ZERO AT 600 HZ
*
R11  16 17     1E6
C8   16 17     2.65E-10
R12  17 98     1
E3   16 98     POLY(2) 1  98  2  98  0  15.8  15.8
*
* POLE AT 40 MHZ
*
R13  18 98     1E3
C9   18 98     3.98E-12
G5   98 18     15 24  1E-3
*
* OUTPUT STAGE
*
R14  24 99     2000E3
R15  24 50     2000E3
ISY  99 50     -96.5E-3
R16  29 99     360
R17  29 50     360
L1   29 30     1E-8
G6   27 50     18 29  2.78E-3
G7   28 50     29 18  2.78E-3
G8   29 99     99 18  2.78E-3
G9   50 29     18 50  2.78E-3
V4   25 29     2.0
V5   29 26     2.0
D3   18 25     DX
D4   26 18     DX
D5   99 27     DX
D6   99 28     DX
D7   50 27     DY
D8   50 28     DY
F1   29  0     V4  1
F2   0  29     V5  1
*
* MODELS USED
*
.MODEL JX PJF(BETA=4.54  VTO=-2.000  IS=1.5E-12 RD=0.1
+ RS=0.1 CGD=1E-15 CGS=1E-15)
.MODEL DX   D(IS=1E-15 RS=10 CJO=1E-15)
.MODEL DY   D(IS=1E-15 BV=50 RS=10 CJO=1E-15)
.MODEL DEN  D(IS=1E-12 RS=7409.6 KF=2.051E-15 AF=1)
.MODEL DIN  D(IS=1E-12 RS=41.5 KF=0 AF=1)
.ENDS AD645J

* AD645K SPICE Macro-model                  4/92, Rev. B
*                                           JCB / PMI
*
* Revision History:
*     Rev. B:  Converted model to include noise analysis.
*
* This version of the AD645 model simulates the worst case
* parameters of the 'K' grade.  The worst case parameters
* used correspond to those in the data sheet.
*
* Copyright 1990 by Analog Devices, Inc.
*
* Refer to "README.DOC" file for License Statement.  Use of this model
* indicates your acceptance with the terms and provisions in the License Statement.
*
* Node assignments
*                non-inverting input
*                | inverting input
*                | | positive supply
*                | | |  negative supply
*                | | |  |  output
*                | | |  |  |
.SUBCKT AD645K   1 2 99 50 30
*
* INPUT STAGE & POLE AT 40 MHZ
*
R3   5  50    1.049
R4   6  50    1.049
CIN  1   2    1E-12
C2   5   6    1.90E-9
I1   99  4    100E-3
IOS  1   2    0.25E-12
EOS  65  1    POLY(1)  17 24  250E-6  1
J1   5   2    4   JX
J2   6   7    4   JX
EN   7  65    43  0  1
GN1  0   1    47  0  1E-6
GN2  0   2    61  0  1E-6
GB1  2  50    POLY(3) 4,2 5,2 50,2 0 1E-12 1E-12 1E-12
GB2  7  50    POLY(3) 4,7 6,7 50,7 0 1E-12 1E-12 1E-12
*
EREF 98  0    24  0   1
*
* VOLTAGE NOISE GENERATOR
*
VN1  41  0    DC 2
RS1  41 42    11.8E3
RS2  42 43    1.2E9
CS1  42 43    100E-11
RS3  43 44    1.2E9
CS2  43 44    100E-11
RS4  44 45    11.8E3
VN2  0  45    DC 2
*
* CURRENT NOISE GENERATOR
*
VN3  46  0    DC 2
RN5  46 47    75.4
RN6  47 48    75.4
VN4  0  48    DC 2
*
* CURRENT NOISE GENERATOR
*
VN5  60  0    DC 2
RN7  60 61    75.4
RN8  61 62    75.4
VN6  0  62    DC 2
*
* SECOND STAGE & POLE AT 1.5 HZ
*
R5   9  98    1.05E6
C3   9  98    1.00E-7
G1   98  9    5  6  9.53E-1
V2   99  8    4.7
V3   10 50    4.7
D1   9   8    DX
D2   10  9    DX
*
* NEGATIVE ZERO AT 15 MHZ
*
R6   11 12     1E6
C4   11 12     -10.6E-15
R7   12 98     1
E2   11 98     9  24  1E6
*
* POLE AT 40 MHZ
*
R8   13 98     1E3
C5   13 98     3.98E-12
G2   98 13     12 24  1E-3
*
* POLE AT 40 MHZ
*
R9   14 98     1E3
C6   14 98     3.98E-12
G3   98 14     13 24  1E-3
*
* POLE AT 40 MHZ
*
R10  15 98     1E3
C7   15 98     3.98E-12
G4   98 15     14 24  1E-3
*
* COMMON-MODE GAIN NETWORK WITH ZERO AT 380 HZ
*
R11  16 17     1E6
C8   16 17     4.198E-10
R12  17 98     1
E3   16 98     POLY(2) 1  98  2  98  0  10  10
*
* POLE AT 40 MHZ
*
R13  18 98     1E3
C9   18 98     3.98E-12
G5   98 18     15 24  1E-3
*
* OUTPUT STAGE
*
R14  24 99     2000E3
R15  24 50     2000E3
ISY  99 50     -96.5E-3
R16  29 99     360
R17  29 50     360
L1   29 30     1E-8
G6   27 50     18 29  2.78E-3
G7   28 50     29 18  2.78E-3
G8   29 99     99 18  2.78E-3
G9   50 29     18 50  2.78E-3
V4   25 29     2.0
V5   29 26     2.0
D3   18 25     DX
D4   26 18     DX
D5   99 27     DX
D6   99 28     DX
D7   50 27     DY
D8   50 28     DY
F1   29  0     V4  1
F2   0  29     V5  1
*
* MODELS USED
*
.MODEL JX PJF(BETA=4.54  VTO=-2.000  IS=0.75E-12 RD=0.1
+ RS=0.1 CGD=1E-15 CGS=1E-15)
.MODEL DX   D(IS=1E-15 RS=10 CJO=1E-15)
.MODEL DY   D(IS=1E-15 BV=50 RS=10 CJO=1E-15)
.MODEL DEN  D(IS=1E-12 RS=7409.6 KF=2.051E-15 AF=1)
.MODEL DIN  D(IS=1E-12 RS=41.5 KF=0 AF=1)
.ENDS AD645K

* AD645S SPICE Macro-model                  4/92, Rev. B
*                                           JCB / PMI
*
* Revision History:
*     Rev. B:  Converted model to include noise analysis.
*
* This version of the AD645 model simulates the worst case
* parameters of the 'S' grade.  The worst case parameters
* used correspond to those in the data sheet.
*
* Copyright 1990 by Analog Devices, Inc.
*
* Refer to "README.DOC" file for License Statement.  Use of this model
* indicates your acceptance with the terms and provisions in the License Statement.
*
* Node assignments
*                non-inverting input
*                | inverting input
*                | | positive supply
*                | | |  negative supply
*                | | |  |  output
*                | | |  |  |
.SUBCKT AD645S   1 2 99 50 30
*
* INPUT STAGE & POLE AT 40 MHZ
*
R3   5  50    1.049
R4   6  50    1.049
CIN  1   2    1E-12
C2   5   6    1.90E-9
I1   99  4    100E-3
IOS  1   2    0.5E-12
EOS  65  1    POLY(1)  17 24  500E-6  1
J1   5   2    4   JX
J2   6   7    4   JX
EN   7  65    43  0  1
GN1  0   1    47  0  1E-6
GN2  0   2    61  0  1E-6
GB1  2  50    POLY(3) 4,2 5,2 50,2 0 1E-12 1E-12 1E-12
GB2  7  50    POLY(3) 4,7 6,7 50,7 0 1E-12 1E-12 1E-12
*
EREF 98  0    24  0   1
*
* VOLTAGE NOISE GENERATOR
*
VN1  41  0    DC 2
RS1  41 42    11.8E3
RS2  42 43    1.2E9
CS1  42 43    79.8E-11
RS3  43 44    1.2E9
CS2  43 44    79.8E-11
RS4  44 45    11.8E3
VN2  0  45    DC 2
*
* CURRENT NOISE GENERATOR
*
VN3  46  0    DC 2
RN5  46 47    144
RN6  47 48    144
VN4  0  48    DC 2
*
* CURRENT NOISE GENERATOR
*
VN5  60  0    DC 2
RN7  60 61    144
RN8  61 62    144
VN6  0  62    DC 2
*
* SECOND STAGE & POLE AT 3 HZ
*
R5   9  98    5.26E5
C3   9  98    1.00E-7
G1   98  9    5  6  9.53E-1
V2   99  8    4.7
V3   10 50    4.7
D1   9   8    DX
D2   10  9    DX
*
* NEGATIVE ZERO AT 15 MHZ
*
R6   11 12     1E6
C4   11 12     -10.6E-15
R7   12 98     1
E2   11 98     9  24  1E6
*
* POLE AT 40 MHZ
*
R8   13 98     1E3
C5   13 98     3.98E-12
G2   98 13     12 24  1E-3
*
* POLE AT 40 MHZ
*
R9   14 98     1E3
C6   14 98     3.98E-12
G3   98 14     13 24  1E-3
*
* POLE AT 40 MHZ
*
R10  15 98     1E3
C7   15 98     3.98E-12
G4   98 15     14 24  1E-3
*
* COMMON-MODE GAIN NETWORK WITH ZERO AT 600 HZ
*
R11  16 17     1E6
C8   16 17     2.65E-10
R12  17 98     1
E3   16 98     POLY(2) 1  98  2  98  0  15.8  15.8
*
* POLE AT 40 MHZ
*
R13  18 98     1E3
C9   18 98     3.98E-12
G5   98 18     15 24  1E-3
*
* OUTPUT STAGE
*
R14  24 99     2000E3
R15  24 50     2000E3
ISY  99 50     -96.5E-3
R16  29 99     360
R17  29 50     360
L1   29 30     1E-8
G6   27 50     18 29  2.78E-3
G7   28 50     29 18  2.78E-3
G8   29 99     99 18  2.78E-3
G9   50 29     18 50  2.78E-3
V4   25 29     2.0
V5   29 26     2.0
D3   18 25     DX
D4   26 18     DX
D5   99 27     DX
D6   99 28     DX
D7   50 27     DY
D8   50 28     DY
F1   29  0     V4  1
F2   0  29     V5  1
*
* MODELS USED
*
.MODEL JX PJF(BETA=4.54  VTO=-2.000  IS=2.5E-12 RD=0.1
+ RS=0.1 CGD=1E-15 CGS=1E-15)
.MODEL DX   D(IS=1E-15 RS=10 CJO=1E-15)
.MODEL DY   D(IS=1E-15 BV=50 RS=10 CJO=1E-15)
.MODEL DEN  D(IS=1E-12 RS=7409.6 KF=2.051E-15 AF=1)
.MODEL DIN  D(IS=1E-12 RS=41.5 KF=0 AF=1)
.ENDS AD645S

* AD704 SPICE Macro-model 9/91, Rev. B
* AAG / PMI
*
* Revision History:
* REV B
* Updated op amp architecture implemented.
*
* Copyright 1991 by Analog Devices, Inc.
*
* Refer to "README.DOC" file for License Statement.  Use of this model
* indicates your acceptance with the terms and provisions in the License Statement.
*
* Node assignments
*             non-inverting input
*             | inverting input
*             | |  positive supply
*             | |  |  negative supply
*             | |  |  |  output
*             | |  |  |  |
.SUBCKT AD704 1 2 99 50 28
*
* INPUT STAGE & POLE AT 3 MHz
*
IOS 1 2 DC 15E-12
CIN 1 2 2E-12
R1 2 3 3.3157E8
R2 1 3 3.3157E8
EOS 9 1 POLY(1) 16 22 30E-6 1
D1 2 9 DX
D2 9 2 DX
Q1 5 2 10 QX
Q2 6 9 11 QX
R3 99 5 530.51
R4 99 6 530.51
C2 5 6 50E-12
R5 10 4 13.314
R6 11 4 13.314
I1 4 50 100E-6
*
* GAIN STAGE & DOMINANT POLE AT 0.45 HZ
*
EREF 98 0 22 0 1
G1 98 12 5 6 1.885E-3
R7 12 98 530.51E6
C3 12 98 666.67E-12
V1 99 13 DC 1.3375
D3 12 13 DX
V2 14 50 DC 1.3375
D4 14 12 DX
*
* COMMON-MODE GAIN NETWORK WITH ZERO AT 500 HZ
*
ECM 15 98 3 22 251.19E-3
RCM1 15 16 1E6
CCM 15 16 318.31E-12
RCM2 16 98 1
*
* ZERO-POLE PAIR AT 165 kHz / 430 kHz
*
GZP1 98 17 12 22 1E-6
RZP1 17 18 1E6
RZP2 18 98 1.6061E6
LZP 18 98 594.45E-3
*
* NEGATIVE ZERO AT -3 MHz
*
ENZ 19 98 17 22 1E6
RNZ1 19 20 1
CNZ 19 20 -53.052E-9
RNZ2 20 98 1E-6
*
* POLE AT 10 MHz
*
G2 98 21 20 22 1E-6
R10 21 98 1E6
C5 21 98 15.915E-15
*
* OUTPUT STAGE
*
IDC 99 50 DC 260E-6
RDC1 99 22 1E6
RDC2 22 50 1E6
DO1 99 23 DX
GO1 23 50 27 21 2E-3
DO2 50 23 DY
DO3 99 24 DX
GO2 24 50 21 27 2E-3
DO4 50 24 DY
VSC1 25 27 3.15
DSC1 21 25 DX
VSC2 27 26 3.15
DSC2 26 21 DX
GO3 27 99 99 21 2E-3
GO4 50 27 21 50 2E-3
RO1 99 27 500
RO2 27 50 500
LO 27 28 265E-9
*
* MODELS USED
*
.MODEL QX NPN(BF=6.25E5)
.MODEL DX D(IS=1E-15)
.MODEL DY D(IS=1E-15 BV=50)
.ENDS AD704

* AD704A SPICE Macro-model 9/91, Rev. B
* AAG / PMI
*
* This version of the AD704 model simulates the worst case
* parameters of the 'A' grade.  The worst case parameters
* used correspond to those in the data sheet.
*
* Revision History:
* REV B
* Updated op amp architecture implemented.
*
* Copyright 1991 by Analog Devices, Inc.
*
* Refer to "README.DOC" file for License Statement.  Use of this model
* indicates your acceptance with the terms and provisions in the License Statement.
*
* Node assignments
*              non-inverting input
*              | inverting input
*              | |  positive supply
*              | |  |  negative supply
*              | |  |  |  output
*              | |  |  |  |
.SUBCKT AD704A 1 2 99 50 28
*
* INPUT STAGE & POLE AT 3 MHz
*
IOS 1 2 DC 125E-12
CIN 1 2 2E-12
R1 2 3 9.8243E7
R2 1 3 9.8243E7
EOS 9 1 POLY(1) 16 22 150E-6 1
D1 2 9 DX
D2 9 2 DX
Q1 5 2 10 QX
Q2 6 9 11 QX
R3 99 5 530.51
R4 99 6 530.51
C2 5 6 50E-12
R5 10 4 13.314
R6 11 4 13.314
I1 4 50 100E-6
*
* GAIN STAGE & DOMINANT POLE AT 2.25 HZ
*
EREF 98 0 22 0 1
G1 98 12 5 6 1.885E-3
R7 12 98 106.1E6
C3 12 98 666.67E-12
V1 99 13 DC 2.3625
D3 12 13 DX
V2 14 50 DC 2.3625
D4 14 12 DX
*
* COMMON-MODE GAIN NETWORK WITH ZERO AT 20 kHZ
*
ECM 15 98 3 22 10
RCM1 15 16 1E6
CCM 15 16 7.9577E-12
RCM2 16 98 1
*
* ZERO-POLE PAIR AT 165 kHz / 430 kHz
*
GZP1 98 17 12 22 1E-6
RZP1 17 18 1E6
RZP2 18 98 1.6061E6
LZP 18 98 594.45E-3
*
* NEGATIVE ZERO AT -3 MHz
*
ENZ 19 98 17 22 1E6
RNZ1 19 20 1
CNZ 19 20 -53.052E-9
RNZ2 20 98 1E-6
*
* POLE AT 10 MHz
*
G2 98 21 20 22 1E-6
R10 21 98 1E6
C5 21 98 15.915E-15
*
* OUTPUT STAGE
*
IDC 99 50 DC 485E-6
RDC1 99 22 1E6
RDC2 22 50 1E6
DO1 99 23 DX
GO1 23 50 27 21 2E-3
DO2 50 23 DY
DO3 99 24 DX
GO2 24 50 21 27 2E-3
DO4 50 24 DY
VSC1 25 27 3.15
DSC1 21 25 DX
VSC2 27 26 3.15
DSC2 26 21 DX
GO3 27 99 99 21 2E-3
GO4 50 27 21 50 2E-3
RO1 99 27 500
RO2 27 50 500
LO 27 28 265E-9
*
* MODELS USED
*
.MODEL QX NPN(BF=1.8519E5)
.MODEL DX D(IS=1E-15)
.MODEL DY D(IS=1E-15 BV=50)
.ENDS AD704A

* AD704B SPICE Macro-model 9/91, Rev. B
* AAG / PMI
*
* This version of the AD704 model simulates the worst case
* parameters of the 'B' grade.  The worst case parameters
* used correspond to those in the data sheet.
*
* Revision History:
* REV B
* Updated op amp architecture implemented.
*
* Copyright 1991 by Analog Devices, Inc.
*
* Refer to "README.DOC" file for License Statement.  Use of this model
* indicates your acceptance with the terms and provisions in the License Statement.
*
* Node assignments
*              non-inverting input
*              | inverting input
*              | |  positive supply
*              | |  |  negative supply
*              | |  |  |  output
*              | |  |  |  |
.SUBCKT AD704B 1 2 99 50 28
*
* INPUT STAGE & POLE AT 3 MHz
*
IOS 1 2 DC 50E-12
CIN 1 2 2E-12
R1 2 3 1.7684E8
R2 1 3 1.7684E8
EOS 9 1 POLY(1) 16 22 75E-6 1
D1 2 9 DX
D2 9 2 DX
Q1 5 2 10 QX
Q2 6 9 11 QX
R3 99 5 530.51
R4 99 6 530.51
C2 5 6 50E-12
R5 10 4 13.314
R6 11 4 13.314
I1 4 50 100E-6
*
* GAIN STAGE & DOMINANT POLE AT 1.5 HZ
*
EREF 98 0 22 0 1
G1 98 12 5 6 1.885E-3
R7 12 98 159.15E6
C3 12 98 666.67E-12
V1 99 13 DC 2.3625
D3 12 13 DX
V2 14 50 DC 2.3625
D4 14 12 DX
*
* COMMON-MODE GAIN NETWORK WITH ZERO AT 4 kHZ
*
ECM 15 98 3 22 1.9953
RCM1 15 16 1E6
CCM 15 16 39.883E-12
RCM2 16 98 1
*
* ZERO-POLE PAIR AT 165 kHz / 430 kHz
*
GZP1 98 17 12 22 1E-6
RZP1 17 18 1E6
RZP2 18 98 1.6061E6
LZP 18 98 594.45E-3
*
* NEGATIVE ZERO AT -3 MHz
*
ENZ 19 98 17 22 1E6
RNZ1 19 20 1
CNZ 19 20 -53.052E-9
RNZ2 20 98 1E-6
*
* POLE AT 10 MHz
*
G2 98 21 20 22 1E-6
R10 21 98 1E6
C5 21 98 15.915E-15
*
* OUTPUT STAGE
*
IDC 99 50 DC 485E-6
RDC1 99 22 1E6
RDC2 22 50 1E6
DO1 99 23 DX
GO1 23 50 27 21 2E-3
DO2 50 23 DY
DO3 99 24 DX
GO2 24 50 21 27 2E-3
DO4 50 24 DY
VSC1 25 27 3.15
DSC1 21 25 DX
VSC2 27 26 3.15
DSC2 26 21 DX
GO3 27 99 99 21 2E-3
GO4 50 27 21 50 2E-3
RO1 99 27 500
RO2 27 50 500
LO 27 28 265E-9
*
* MODELS USED
*
.MODEL QX NPN(BF=3.3333E5)
.MODEL DX D(IS=1E-15)
.MODEL DY D(IS=1E-15 BV=50)
.ENDS AD704B

* AD704K SPICE Macro-model 9/91, Rev. B
* AAG / PMI
*
* This version of the AD704 model simulates the worst case
* parameters of the 'K' grade.  The worst case parameters
* used correspond to those in the data sheet.
*
* Revision History:
* REV B
* Updated op amp architecture implemented.
*
* Copyright 1991 by Analog Devices, Inc.
*
* Refer to "README.DOC" file for License Statement.  Use of this model
* indicates your acceptance with the terms and provisions in the License Statement.
*
* Node assignments
*              non-inverting input
*              | inverting input
*              | |  positive supply
*              | |  |  negative supply
*              | |  |  |  output
*              | |  |  |  |
.SUBCKT AD704K 1 2 99 50 28
*
* INPUT STAGE & POLE AT 3 MHz
*
IOS 1 2 DC 50E-12
CIN 1 2 2E-12
R1 2 3 1.7684E8
R2 1 3 1.7684E8
EOS 9 1 POLY(1) 16 22 75E-6 1
D1 2 9 DX
D2 9 2 DX
Q1 5 2 10 QX
Q2 6 9 11 QX
R3 99 5 530.51
R4 99 6 530.51
C2 5 6 50E-12
R5 10 4 13.314
R6 11 4 13.314
I1 4 50 100E-6
*
* GAIN STAGE & DOMINANT POLE AT 1.5 HZ
*
EREF 98 0 22 0 1
G1 98 12 5 6 1.885E-3
R7 12 98 159.15E6
C3 12 98 666.67E-12
V1 99 13 DC 2.3625
D3 12 13 DX
V2 14 50 DC 2.3625
D4 14 12 DX
*
* COMMON-MODE GAIN NETWORK WITH ZERO AT 4 kHZ
*
ECM 15 98 3 22 1.9953
RCM1 15 16 1E6
CCM 15 16 39.883E-12
RCM2 16 98 1
*
* ZERO-POLE PAIR AT 165 kHz / 430 kHz
*
GZP1 98 17 12 22 1E-6
RZP1 17 18 1E6
RZP2 18 98 1.6061E6
LZP 18 98 594.45E-3
*
* NEGATIVE ZERO AT -3 MHz
*
ENZ 19 98 17 22 1E6
RNZ1 19 20 1
CNZ 19 20 -53.052E-9
RNZ2 20 98 1E-6
*
* POLE AT 10 MHz
*
G2 98 21 20 22 1E-6
R10 21 98 1E6
C5 21 98 15.915E-15
*
* OUTPUT STAGE
*
IDC 99 50 DC 485E-6
RDC1 99 22 1E6
RDC2 22 50 1E6
DO1 99 23 DX
GO1 23 50 27 21 2E-3
DO2 50 23 DY
DO3 99 24 DX
GO2 24 50 21 27 2E-3
DO4 50 24 DY
VSC1 25 27 3.15
DSC1 21 25 DX
VSC2 27 26 3.15
DSC2 26 21 DX
GO3 27 99 99 21 2E-3
GO4 50 27 21 50 2E-3
RO1 99 27 500
RO2 27 50 500
LO 27 28 265E-9
*
* MODELS USED
*
.MODEL QX NPN(BF=3.3333E5)
.MODEL DX D(IS=1E-15)
.MODEL DY D(IS=1E-15 BV=50)
.ENDS AD704K

* AD704T SPICE Macro-model 9/91, Rev. B
* AAG / PMI
*
* This version of the AD704 model simulates the worst case
* parameters of the 'T' grade.  The worst case parameters
* used correspond to those in the data sheet.
*
* Revision History:
* REV B
* Updated op amp architecture implemented.
*
* Copyright 1991 by Analog Devices, Inc.
*
* Refer to "README.DOC" file for License Statement.  Use of this model
* indicates your acceptance with the terms and provisions in the License Statement.
*
* Node assignments
*              non-inverting input
*              | inverting input
*              | |  positive supply
*              | |  |  negative supply
*              | |  |  |  output
*              | |  |  |  |
.SUBCKT AD704T 1 2 99 50 28
*
* INPUT STAGE & POLE AT 3 MHz
*
IOS 1 2 DC 75E-12
CIN 1 2 2E-12
R1 2 3 1.3263E8
R2 1 3 1.3263E8
EOS 9 1 POLY(1) 16 22 100E-6 1
D1 2 9 DX
D2 9 2 DX
Q1 5 2 10 QX
Q2 6 9 11 QX
R3 99 5 530.51
R4 99 6 530.51
C2 5 6 50E-12
R5 10 4 13.314
R6 11 4 13.314
I1 4 50 100E-6
*
* GAIN STAGE & DOMINANT POLE AT 2.25 HZ
*
EREF 98 0 22 0 1
G1 98 12 5 6 1.885E-3
R7 12 98 106.1E6
C3 12 98 666.67E-12
V1 99 13 DC 2.3625
D3 12 13 DX
V2 14 50 DC 2.3625
D4 14 12 DX
*
* COMMON-MODE GAIN NETWORK WITH ZERO AT 6.3 kHZ
*
ECM 15 98 3 22 3.1623
RCM1 15 16 1E6
CCM 15 16 25.165E-12
RCM2 16 98 1
*
* ZERO-POLE PAIR AT 165 kHz / 430 kHz
*
GZP1 98 17 12 22 1E-6
RZP1 17 18 1E6