* OP113 SPICE Macro-model               3/94, Rev. A
*                                       ARG / PMI
*
* Copyright 1992 by Analog Devices, Inc.
*
* Refer to "README.DOC" file for License Statement.
* Use of this model indicates your acceptance with
* the terms and provisions in the License Statement.
*
* Node assignments
*
*                   non-inverting input
*                   |  inverting input
*                   |  |  positive supply
*                   |  |  |  negative supply
*                   |  |  |  |  output
*                   |  |  |  |  |
.SUBCKT OP113       3  2  7  4  6
*
*  INPUT STAGE
*
R3   4   19   1.5E3
R4   4   20   1.5E3
C1   19  20   5.31E-12
I1   7   18   106E-6
IOS  2    3   25E-09
EOS  12   5   POLY(1) 51 4 25E-06 1
Q1   19   3   18 PNP1
Q2   20  12   18 PNP1
CIN  3    2   3E-12
D1   3    1   DY
D2   2    1   DY
EN   5    2   22  0  1
GN1  0    2   25  0  1E-5
GN2  0    3   28  0  1E-5
*
* VOLTAGE NOISE SOURCE WITH FLICKER NOISE
*
DN1  21  22   DEN
DN2  22  23   DEN
VN1  21   0   DC 2
VN2  0   23   DC 2
*
* CURRENT NOISE SOURCE WITH FLICKER NOISE
*
DN3  24  25   DIN
DN4  25  26   DIN
VN3  24   0   DC 2
VN4  0   26   DC 2
*
* SECOND CURRENT NOISE SOURCE
*
DN5  27  28   DIN
DN6  28  29   DIN
VN5  27   0   DC 2
VN6  0   29   DC 2
*
* GAIN STAGE & DOMINANT POLE AT 2HZ
*
G2   34  36   19 20 2.65E-04
R7   34  36   39E6
V3   35   4   DC  6
D4   36  35   DX
VB2  34   4   1.6
*
* SUPPLY/2 GENERATOR
*
ISY  7    4   0.2E-3
R10  7   60   40E3
R11  60   4   40E3
C3   60   0   1E-9
*
* CMRR STAGE & POLE AT 6kHZ
*
ECM  50   4   POLY(2) 3 60 2 60 0 0.8 0.8
CCM  50  51   26.5E-12
RCM1 50  51   1E6
RCM2 51   4   1
*
* OUTPUT STAGE
*
R12  37  36  1E3
R13  38  36  500
C4   37   6  20E-12
C5   38  39  20E-12
M1   39  36  4   4   MN  L=9E-6  W=1000E-6  AD=15E-9 AS=15E-9
M2   45  36  4   4   MN  L=9E-6  W=1000E-6  AD=15E-9 AS=15E-9
D5   39  47  DX
D6   47  45  DX
Q3   39  40  41  QPA  8
VB   7   40  DC  0.861
R14  7   41  375
Q4   41   7  43  QNA  1
R17  7   43  15
Q5   43  39  6   QNA  20
Q6   46  45  6   QPA  20
R18  46   4  15
Q7   36  46  4   QNA  1
M3   6   36  4   4   MN  L=9E-6  W=2000E-6  AD=30E-9 AS=30E-9
*
* NONLINEAR MODELS USED
*
.MODEL DX D (IS=1E-15)
.MODEL DY D (IS=1E-15  BV=7)
.MODEL PNP1 PNP (BF=220)
.MODEL DEN D(IS=1E-12 RS=1016 KF=3.278E-15 AF=1)
.MODEL DIN D(IS=1E-12 RS=100019 KF=4.173E-15 AF=1)
.MODEL QNA NPN(IS=1.19E-16 BF=253 VAF=193 VAR=15 RB=2.0E3
+ IRB=7.73E-6 RBM=132.8 RE=4 RC=209 CJE=2.1E-13 VJE=0.573
+ MJE=0.364 CJC=1.64E-13 VJC=0.534 MJC=0.5 CJS=1.37E-12
+ VJS=0.59 MJS=0.5 TF=0.43E-9 PTF=30)
.MODEL QPA PNP(IS=5.21E-17 BF=131 VAF=62 VAR=15 RB=1.52E3
+ IRB=1.67E-5 RBM=368.5 RE=6.31 RC=354.4 CJE=1.1E-13
+ VJE=0.745 MJE=0.33 CJC=2.37E-13 VJC=0.762 MJC=0.4
+ CJS=7.11E-13 VJS=0.45 MJS=0.412 TF=1.0E-9 PTF=30)
.MODEL MN NMOS(LEVEL=3 VTO=1.3 RS=0.3 RD=0.3 TOX=8.5E-8
+ LD=1.48E-6 NSUB=1.53E16 UO=650 DELTA=10 VMAX=2E5
+ XJ=1.75E-6 KAPPA=0.8 ETA=0.066 THETA=0.01 TPG=1 CJ=2.9E-4
+ PB=0.837 MJ=0.407 CJSW=0.5E-9 MJSW=0.33)
.ENDS

* OP162/OP262/OP462 SPICE Macro-model
* 7/96, Ver. 1
* CM 3/99
* Troy Murphy / ADSC
*
* Copyright 1996 by Analog Devices
*
* Refer to "README.DOC" file for License Statement.  Use of this model
* indicates your acceptance of the terms and provisions in the License
* Statement.
*
* Node Assignments
*		noninverting input
*		|	inverting input
*		|	|	positive supply
*		|	|	|	negative supply
*		|	|	|	|	output
*		|	|	|	|	|
*		|	|	|	|	|
.SUBCKT OP162	1	2	99	50	45
*
*INPUT STAGE
*
Q1   5  7 3 PIX 5
Q2   6  2 4 PIX 5
Ios  1  2 1.25E-9
I1  99 15 85E-6
EOS  7  1 POLY(1) (14,20) 45E-6 1
RC1  5 50 3.035E+3
RC2  6 50 3.035E+3
RE1  3 15 607
RE2  4 15 607
C1   5  6 600E-15
D1   3  8 DX
D2   4  9 DX
V1  99  8 DC 1
V2  99  9 DC 1
*
* 1st GAIN STAGE
*
EREF 98  0 20 0 1
G1   98 10 5 6 10.5
R1   10 98 1
C2   10 98 3.3E-9
*
* COMMON-MODE STAGE WITH ZERO AT 4kHz
*
ECM 13 98 POLY(2) (1,98) (2,98) 0 0.5 0.5
R2  13 14 1E+6
R3  14 98 70
C3  13 14 80E-12
*
* POLE AT 1.5MHz, ZERO AT 3MHz
*
G2 21 98 10 98 .588E-6
R4 21 98 1.7E+6
R5 21 22 1.7E+6
C4 22 98 31.21E-15
*
* POLE AT 6MHz, ZERO AT 3MHz
*
E1  23 98 21 98 2
R6  23 24 53E+3
R7  24 98 53E+3
C5  23 24 1E-12
*
* SECOND GAIN STAGE
*
G3  25 98 24 98 40E-6
R8 25 98 1.65E+6
D3  25 99 DX
D4  50 25 DX
*
* OUTPUT STAGE
*
GSY  99 50 POLY(1) (99,50) 277.5E-6 7.5E-6
R9   99 20 100E3
R10  20 50 100E3
Q3   45 41 99 POUT 4
Q4   45 43 50 NOUT 2
EB1  99 40 POLY(1) (98,25) 0.70366  1
EB2  42 50 POLY(1) (25,98) 0.73419  1
RB1  40 41 500
RB2  42 43 500
CF   45 25 11E-12
D5   46 99 DX
D6   47 43 DX
V3   46 41 0.7
V4   47 50 0.7

.MODEL PIX PNP (Bf=117.7)
.MODEL POUT PNP (BF=119, IS=2.782E-17, VAF=28, KF=3E-7)
.MODEL NOUT NPN (BF=110, IS=1.786E-17, VAF=90, KF=3E-7)
.MODEL DX D()
.ENDS OP162

* OP176 SPICE Macro-model              11/93, Rev. A
*                                       ARG / PMI
* CM 3/99
*
* Copyright 1992 by Analog Devices
*
* Refer to "README.DOC" file for License Statement.  Use of this model
* indicates your acceptance with the terms and provisions in the License
* Statement.
*
* Node assignments
*               non-inverting input
*               | inverting input
*               | | positive supply
*               | | |  negative supply
*               | | |  |  output
*               | | |  |  |
*               | | |  |  |
.SUBCKT OP176   1 2 99 50 34
*
* INPUT STAGE & POLE AT 100MHZ
*
R3   5 51     2.487
R4   6 51     2.487
CIN  1  2     3.7E-12
CM1  1 98     7.5E-12
CM2  2 98     7.5E-12
C2   5  6     320E-12
I1   97 4     100E-3
IOS  1  2     1E-9
EOS  9  3     POLY(1)  (26,28)  0.2E-3  1
Q1   5  2  7  QX
Q2   6  9  8  QX
R5   7  4     1.970
R6   8  4     1.970
D1   2 36     DZ
D2   1 36     DZ
EN   3  1     10 0  1
GN1  0  2     13 0  1E-3
GN2  0  1     16 0  1E-3
*
EREF 98 0     28 0  1
EP   97 0     99 0  1
EM   51 0     50 0  1
*
* VOLTAGE NOISE SOURCE
*
DN1  35 10    DEN
DN2  10 11    DEN
VN1  35  0    DC 2
VN2  0  11    DC 2
*
* CURRENT NOISE SOURCE
*
DN3  12 13    DIN
DN4  13 14    DIN
VN3  12  0    DC 2
VN4  0  14    DC 2
*
* CURRENT NOISE SOURCE
*
DN5  15 16    DIN
DN6  16 17    DIN
VN5  15  0    DC 2
VN6  0  17    DC 2
*
* GAIN STAGE & DOMINANT POLE AT 32HZ
*
R7  18 98     1.243E6
C3  18 98     4E-9
G1  98 18     5 6  4.021E-1
V2  97 19     1.35
V3  20 51     1.35
D3  18 19     DX
D4  20 18     DX
*
* POLE/ZERO PAIR AT 1.5MHZ/2.7MHZ
*
R8  21 98     1E3
R9  21 22     1.25E3
C4  22 98     47.2E-12
G2  98 21     18 28  1E-3
*
* POLE AT 100MHZ
*
R10 23 98     1
C5  23 98     1.59E-9
G3  98 23     21 28  1
*
* POLE AT 100MHZ
*
R11 24 98     1
C6  24 98     1.59E-9
G4  98 24     23 28  1
*
* COMMON-MODE GAIN NETWORK WITH ZERO AT 1KHZ
*
R12 25 26     1E6
C7  25 26     60E-12
R13 26 98     1
E2  25 98     POLY(2) (1,98) (2,98) 0 2.50 2.50
*
* POLE AT 100MHZ
*
R14 27 98     1
C8  27 98     1.59E-9
G5  98 27     24 28  1
*
* OUTPUT STAGE
*
R15 28 99     58.333E3
R16 28 50     58.333E3
C9  28 50     1E-6
ISY 99 50     1.743E-3
R17 29 99     100
R18 29 50     100
L2  29 34     1E-9
G6  32 50     27 29  10E-3
G7  33 50     29 27  10E-3
G8  29 99     99 27  10E-3
G9  50 29     27 50  10E-3
V4  30 29     1.74
V5  29 31     1.74
F1  29  0     V4  1
F2  0  29     V5  1
D5  27 30     DX
D6  31 27     DX
D7  99 32     DX
D8  99 33     DX
D9  50 32     DY
D10 50 33     DY
*
* MODELS USED
*
.MODEL QX PNP(BF=5E5)
.MODEL DX   D(IS=1E-12)
.MODEL DY   D(IS=1E-15 BV=50)
.MODEL DZ   D(IS=1E-15 BV=7.0)
.MODEL DEN  D(IS=1E-12 RS=4.35K KF=1.95E-15 AF=1)
.MODEL DIN  D(IS=1E-12 RS=268 KF=1.08E-15 AF=1)
.ENDS

* OP176G SPICE Macro-model             11/93, Rev. A
*                                       ARG / PMI
* CM 3/99
*
* This version of the OP-176 model simulates the worst-case
* parameters of the 'G' grade.  The worst-case parameters
* used correspond to those in the data sheet.
*
* Copyright 1992 by Analog Devices
*
* Refer to "README.DOC" file for License Statement.  Use of this model
* indicates your acceptance with the terms and provisions in the License
* Statement.
*
* Node assignments
*               non-inverting input
*               | inverting input
*               | | positive supply
*               | | |  negative supply
*               | | |  |  output
*               | | |  |  |
*               | | |  |  |
.SUBCKT OP176G  1 2 99 50 34
*
* INPUT STAGE & POLE AT 100MHZ
*
R3   5 51     1.492
R4   6 51     1.492
CIN  1  2     3.7E-12
CM1  1 98     7.5E-12
CM2  2 98     7.5E-12
C2   5  6     320E-12
I1   97 4     100E-3
IOS  1  2     25E-9
EOS  9  3     POLY(1)  (26,28)  1E-3  1
Q1   5  2  7  QX
Q2   6  9  8  QX
R5   7  4     0.975
R6   8  4     0.975
D1   2 36     DZ
D2   1 36     DZ
EN   3  1     10 0  1
GN1  0  2     13 0  1E-3
GN2  0  1     16 0  1E-3
*
EREF 98 0     28 0  1
EP   97 0     99 0  1
EM   51 0     50 0  1
*
* VOLTAGE NOISE SOURCE
*
DN1  35 10    DEN
DN2  10 11    DEN
VN1  35  0    DC 2
VN2  0  11    DC 2
*
* CURRENT NOISE SOURCE
*
DN3  12 13    DIN
DN4  13 14    DIN
VN3  12  0    DC 2
VN4  0  14    DC 2
*
* CURRENT NOISE SOURCE
*
DN5  15 16    DIN
DN6  16 17    DIN
VN5  15  0    DC 2
VN6  0  17    DC 2
*
* GAIN STAGE & DOMINANT POLE AT 64HZ
*
R7  18 98     373.019E3
C3  18 98     6.667E-9
G1  98 18     5 6  670.206E-3
V2  97 19     1.82
V3  20 51     1.82
D3  18 19     DX
D4  20 18     DX
*
* POLE/ZERO PAIR AT 1.5MHZ/2.7MHZ
*
R8  21 98     1E3
R9  21 22     1.25E3
C4  22 98     47.2E-12
G2  98 21     18 28  1E-3
*
* POLE AT 100MHZ
*
R10 23 98     1
C5  23 98     1.59E-9
G3  98 23     21 28  1
*
* POLE AT 100MHZ
*
R11 24 98     1
C6  24 98     1.59E-9
G4  98 24     23 28  1
*
* COMMON-MODE GAIN NETWORK WITH ZERO AT 20KHZ
*
R12 25 26     1E6
C7  25 26     3.183E-12
R13 26 98     1
E2  25 98     POLY(2) (1,98) (2,98) 0 50 50
*
* POLE AT 100MHZ
*
R14 27 98     1
C8  27 98     1.59E-9
G5  98 27     24 28  1
*
* OUTPUT STAGE
*
R15 28 99     28E3
R16 28 50     28E3
C9  28 50     1E-6
ISY 99 50     1.964E-3
R17 29 99     100
R18 29 50     100
L2  29 34     1E-9
G6  32 50     27 29  10E-3
G7  33 50     29 27  10E-3
G8  29 99     99 27  10E-3
G9  50 29     27 50  10E-3
V4  30 29     0.475
V5  29 31     0.475
F1  29  0     V4  1
F2  0  29     V5  1
D5  27 30     DX
D6  31 27     DX
D7  99 32     DX
D8  99 33     DX
D9  50 32     DY
D10 50 33     DY
*
* MODELS USED
*
.MODEL QX PNP(BF=142.857E3)
.MODEL DX   D(IS=1E-12)
.MODEL DY   D(IS=1E-15 BV=50)
.MODEL DZ   D(IS=1E-15 BV=7.0)
.MODEL DEN  D(IS=1E-12 RS=4.35K KF=1.95E-15 AF=1)
.MODEL DIN  D(IS=1E-12 RS=268 KF=1.08E-15 AF=1)
.ENDS

* OP177 SPICE Macro-model                  12/90, Rev. B
*                                           JCB / PMI
*
* Revision History:
*   REV. B
*     Re-ordered subcircuit call out nodes to put the
*     output node last.
*     Changed Ios from 0.3E-9 to 0.15E-9
*     Added F1 and F2 to fix short circuit current limit.
*
*
* Copyright 1990 by Analog Devices, Inc.
*
* Refer to "README.DOC" file for License Statement.  Use of this model
* indicates your acceptance with the terms and provisions in the License Statement.
*
* Node assignments
*               non-inverting input
*               | inverting input
*               | | positive supply
*               | | |  negative supply
*               | | |  |  output
*               | | |  |  |
.SUBCKT OP177   1 2 99 50 39
*
* INPUT STAGE & POLE AT 6 MHZ
*
R1   2   3    5E11
R2   1   3    5E11
R3   5  97    0.0606
R4   6  97    0.0606
CIN  1   2    4E-12
C2   5   6    218.9E-9
I1   4  51    1
IOS  1   2    0.15E-9
EOS  9  10    POLY(1)  30 33  4E-6  1
Q1   5  2  7  QX
Q2   6  9  8  QX
R5   7   4    0.009
R6   8   4    0.009
D1   2   1    DX
D2   1   2    DX
EN   10  1    12  0  1
GN1  0   2    15  0  1
GN2  0   1    18  0  1
*
EREF  98 0    33  0  1
EPLUS 97 0    99  0  1
ENEG  51 0    50  0  1
*
* VOLTAGE NOISE SOURCE WITH FLICKER NOISE
*
DN1  11  12   DEN
DN2  12  13   DEN
VN1  11   0   DC 2
VN2  0   13   DC 2
*
* CURRENT NOISE SOURCE WITH FLICKER NOISE
*
DN3  14  15   DIN
DN4  15  16   DIN
VN3  14   0   DC 2
VN4  0   16   DC 2
*
* SECOND CURRENT NOISE SOURCE
*
DN5  17  18   DIN
DN6  18  19   DIN
VN5  17   0   DC 2
VN6  0   19   DC 2
*
* FIRST GAIN STAGE
*
R7   20 98     1
G1   98 20     5  6  59.91
D3   20 21     DX
D4   22 20     DX
E1   97 21     POLY(1) 97 33 -2.4 1
E2   22 51     POLY(1) 33 51 -2.4 1
*
* GAIN STAGE & DOMINANT POLE AT 0.053 HZ
*
R8   23 98     6.01E9
C3   23 98     500E-12
G2   98 23     20 33  33.3E-6
V1   97 24     1.3
V2   25 51     1.3
D5   23 24     DX
D6   25 23     DX
*
* NEGATIVE ZERO AT -4MHZ
*
R9   26 27     1
C4   26 27     -39.75E-9
R10  27 98     1E-6
E3   26 98     23 33  1E6
*
* COMMON-MODE GAIN NETWORK WITH ZERO AT 20 HZ
*
R13  30 31     1
L2   31 98     7.96E-3
G4   98 30     3  33  1.0E-7
D7   30 97     DX
D8   51 30     DX
*
* POLE AT 2 MHZ
*
R14  32 98     1
C5   32 98     79.5E-9
G5   98 32     27 33  1
*
* OUTPUT STAGE
*
R15  33 97     1
R16  33 51     1
GSY  99 50     POLY(1) 99 50 0.325E-3 0.0425E-3
F1   34  0     V3  1
F2   0  34     V4  1
R17  34 99     400
R18  34 50     400
L3   34 39     2E-7
G6   37 50     32 34  2.5E-3
G7   38 50     34 32  2.5E-3
G8   34 99     99 32  2.5E-3
G9   50 34     32 50  2.5E-3
V3   35 34     6.8
V4   34 36     4.4
D9   32 35     DX
D10  36 32     DX
D11  99 37     DX
D12  99 38     DX
D13  50 37     DY
D14  50 38     DY
*
* MODELS USED
*
.MODEL QX NPN(BF=500E6)
.MODEL DX   D(IS=1E-15)
.MODEL DY   D(IS=1E-15 BV=50)
.MODEL DEN  D(IS=1E-12, RS=12.08K, KF=1E-17, AF=1)
.MODEL DIN  D(IS=1E-12, RS=7.55E-6, KF=1.55E-15, AF=1)
.ENDS

* OP177A SPICE Macro-model                 12/90, Rev. B
*                                           JCB / PMI
*
* Revision History:
*   REV. B
*     Re-ordered subcircuit call out nodes to put the
*     output node last.
*     Changed Ios from 1E-9 to 0.5E-9
*     Added F1 and F2 to fix short circuit current limit.
*
*
* This version of the OP-177 model simulates the worst case
* parameters of the 'A' grade.  The worst case parameters
* used correspond to those in the data book.
*
*
* Copyright 1990 by Analog Devices, Inc.
*
* Refer to "README.DOC" file for License Statement.  Use of this model
* indicates your acceptance with the terms and provisions in the License Statement.
*
* Node assignments
*                non-inverting input
*                | inverting input
*                | | positive supply
*                | | |  negative supply
*                | | |  |  output
*                | | |  |  |
.SUBCKT OP177A   1 2 99 50 39
*
* INPUT STAGE & POLE AT 6 MHZ
*
R1   2   3    5E11
R2   1   3    5E11
R3   5  97    0.0606
R4   6  97    0.0606
CIN  1   2    4E-12
C2   5   6    218.9E-9
I1   4  51    1
IOS  1   2    0.5E-9
EOS  9  10    POLY(1)  30 33  10E-6  1
Q1   5  2  7  QX
Q2   6  9  8  QX
R5   7   4    0.009
R6   8   4    0.009
D1   2   1    DX
D2   1   2    DX
EN   10  1    12  0  1
GN1  0   2    15  0  1
GN2  0   1    18  0  1
*
EREF  98 0    33  0  1
EPLUS 97 0    99  0  1
ENEG  51 0    50  0  1
*
* VOLTAGE NOISE SOURCE WITH FLICKER NOISE
*
DN1  11  12   DEN
DN2  12  13   DEN
VN1  11   0   DC 2
VN2  0   13   DC 2
*
* CURRENT NOISE SOURCE WITH FLICKER NOISE
*
DN3  14  15   DIN
DN4  15  16   DIN
VN3  14   0   DC 2
VN4  0   16   DC 2
*
* SECOND CURRENT NOISE SOURCE
*
DN5  17  18   DIN
DN6  18  19   DIN
VN5  17   0   DC 2
VN6  0   19   DC 2
*
* FIRST GAIN STAGE
*
R7   20 98     1
G1   98 20     5  6  119.8
D3   20 21     DX
D4   22 20     DX
E1   97 21     POLY(1) 97 33 -2.4 1
E2   22 51     POLY(1) 33 51 -2.4 1
*
* GAIN STAGE & DOMINANT POLE AT 0.127 HZ
*
R8   23 98     1.253E9
C3   23 98     1E-9
G2   98 23     20 33  33.3E-6
V1   97 24     1.8
V2   25 51     1.8
D5   23 24     DX
D6   25 23     DX
*
* NEGATIVE ZERO AT -4MHZ
*
R9   26 27     1
C4   26 27     -39.75E-9
R10  27 98     1E-6
E3   26 98     23 33  1E6
*
* COMMON-MODE GAIN NETWORK WITH ZERO AT 63 HZ
*
R13  30 31     1
L2   31 98     2.52E-3
G4   98 30     3  33  0.316E-6
D7   30 97     DX
D8   51 30     DX
*
* POLE AT 2 MHZ
*
R14  32 98     1
C5   32 98     79.5E-9
G5   98 32     27 33  1
*
* OUTPUT STAGE
*
R15  33 97     1
R16  33 51     1
GSY  99 50     POLY(1) 99 50 0.725E-3 0.0425E-3
F1   34  0     V3  1
F2   0  34     V4  1
R17  34 99     400
R18  34 50     400
L3   34 39     2E-7
G6   37 50     32 34  2.5E-3
G7   38 50     34 32  2.5E-3
G8   34 99     99 32  2.5E-3
G9   50 34     32 50  2.5E-3
V3   35 34     6.8
V4   34 36     4.4
D9   32 35     DX
D10  36 32     DX
D11  99 37     DX
D12  99 38     DX
D13  50 37     DY
D14  50 38     DY
*
* MODELS USED
*
.MODEL QX NPN(BF=333.3E6)
.MODEL DX   D(IS=1E-15)
.MODEL DY   D(IS=1E-15 BV=50)
.MODEL DEN  D(IS=1E-12, RS=14.61K, KF=2E-17, AF=1)
.MODEL DIN  D(IS=1E-12, RS=7.55E-6, KF=3E-15, AF=1)
.ENDS

* OP177B SPICE Macro-model                 12/90, Rev. B
*                                           JCB / PMI
*
* Revision History:
*   REV. B
*     Re-ordered subcircuit call out nodes to put the
*     output node last.
*     Changed Ios from 1.5E-9 to 0.75E-9
*     Added F1 and F2 to fix short circuit current limit.
*
*
* This version of the OP-177 model simulates the worst case
* parameters of the 'B' grade.  The worst case parameters
* used correspond to those in the data book.
*
*
* Copyright 1990 by Analog Devices, Inc.
*
* Refer to "README.DOC" file for License Statement.  Use of this model
* indicates your acceptance with the terms and provisions in the License Statement.
*
* Node assignments
*                non-inverting input
*                | inverting input
*                | | positive supply
*                | | |  negative supply
*                | | |  |  output
*                | | |  |  |
.SUBCKT OP177B   1 2 99 50 39
*
* INPUT STAGE & POLE AT 6 MHZ
*
R1   2   3    5E11
R2   1   3    5E11
R3   5  97    0.0606
R4   6  97    0.0606
CIN  1   2    4E-12
C2   5   6    218.9E-9
I1   4  51    1
IOS  1   2    0.75E-9
EOS  9  10    POLY(1)  30 33  25E-6  1
Q1   5  2  7  QX
Q2   6  9  8  QX
R5   7   4    0.009
R6   8   4    0.009
D1   2   1    DX
D2   1   2    DX
EN   10  1    12  0  1
GN1  0   2    15  0  1
GN2  0   1    18  0  1
*
EREF  98 0    33  0  1
EPLUS 97 0    99  0  1
ENEG  51 0    50  0  1
*
* VOLTAGE NOISE SOURCE WITH FLICKER NOISE
*
DN1  11  12   DEN
DN2  12  13   DEN
VN1  11   0   DC 2
VN2  0   13   DC 2
*
* CURRENT NOISE SOURCE WITH FLICKER NOISE
*
DN3  14  15   DIN
DN4  15  16   DIN
VN3  14   0   DC 2
VN4  0   16   DC 2
*
* SECOND CURRENT NOISE SOURCE
*
DN5  17  18   DIN
DN6  18  19   DIN
VN5  17   0   DC 2
VN6  0   19   DC 2
*
* FIRST GAIN STAGE
*
R7   20 98     1
G1   98 20     5  6  119.8
D3   20 21     DX
D4   22 20     DX
E1   97 21     POLY(1) 97 33 -2.4 1
E2   22 51     POLY(1) 33 51 -2.4 1
*
* GAIN STAGE & DOMINANT POLE AT 0.127 HZ
*
R8   23 98     1.253E9
C3   23 98     1E-9
G2   98 23     20 33  33.3E-6
V1   97 24     1.8
V2   25 51     1.8
D5   23 24     DX
D6   25 23     DX
*
* NEGATIVE ZERO AT -4MHZ
*
R9   26 27     1
C4   26 27     -39.75E-9
R10  27 98     1E-6
E3   26 98     23 33  1E6
*
* COMMON-MODE GAIN NETWORK WITH ZERO AT 63 HZ
*
R13  30 31     1
L2   31 98     2.52E-3
G4   98 30     3  33  0.316E-6
D7   30 97     DX
D8   51 30     DX
*
* POLE AT 2 MHZ
*
R14  32 98     1
C5   32 98     79.5E-9
G5   98 32     27 33  1
*
* OUTPUT STAGE
*
R15  33 97     1
R16  33 51     1
GSY  99 50     POLY(1) 99 50 0.725E-3 0.0425E-3
F1   34  0     V3  1
F2   0  34     V4  1
R17  34 99     400
R18  34 50     400
L3   34 39     2E-7
G6   37 50     32 34  2.5E-3
G7   38 50     34 32  2.5E-3
G8   34 99     99 32  2.5E-3
G9   50 34     32 50  2.5E-3
V3   35 34     6.8
V4   34 36     4.4
D9   32 35     DX
D10  36 32     DX
D11  99 37     DX
D12  99 38     DX
D13  50 37     DY
D14  50 38     DY
*
* MODELS USED
*
.MODEL QX NPN(BF=250E6)
.MODEL DX   D(IS=1E-15)
.MODEL DY   D(IS=1E-15 BV=50)
.MODEL DEN  D(IS=1E-12, RS=14.61K, KF=2E-17, AF=1)
.MODEL DIN  D(IS=1E-12, RS=7.55E-6, KF=3E-15, AF=1)
.ENDS

* OP-177E SPICE Macro-model                 12/90, Rev. B
*                                           JCB / PMI
*
* Revision History:
*   REV. B
*     Re-ordered subcircuit call out nodes to put the
*     output node last.
*     Changed Ios from 1.0E-9 to 0.5E-9
*     Added F1 and F2 to fix short circuit current limit.
*
*
* This version of the OP-177 model simulates the worst case
* parameters of the 'E' grade.  The worst case parameters
* used correspond to those in the data book.
*
*
* Copyright 1990 by Analog Devices, Inc.
*
* Refer to "README.DOC" file for License Statement.  Use of this model
* indicates your acceptance with the terms and provisions in the License Statement.
*
* Node assignments
*                non-inverting input
*                | inverting input
*                | | positive supply
*                | | |  negative supply
*                | | |  |  output
*                | | |  |  |
.SUBCKT OP177E   1 2 99 50 39
*
* INPUT STAGE & POLE AT 6 MHZ
*
R1   2   3    5E11
R2   1   3    5E11
R3   5  97    0.0606
R4   6  97    0.0606
CIN  1   2    4E-12
C2   5   6    218.9E-9
I1   4  51    1
IOS  1   2    0.5E-9
EOS  9  10    POLY(1)  30 33  10E-6  1
Q1   5  2  7  QX
Q2   6  9  8  QX
R5   7   4    0.009
R6   8   4    0.009
D1   2   1    DX
D2   1   2    DX
EN   10  1    12  0  1
GN1  0   2    15  0  1
GN2  0   1    18  0  1
*
EREF  98 0    33  0  1
EPLUS 97 0    99  0  1
ENEG  51 0    50  0  1
*
* VOLTAGE NOISE SOURCE WITH FLICKER NOISE
*
DN1  11  12   DEN
DN2  12  13   DEN
VN1  11   0   DC 2
VN2  0   13   DC 2
*
* CURRENT NOISE SOURCE WITH FLICKER NOISE
*
DN3  14  15   DIN
DN4  15  16   DIN
VN3  14   0   DC 2
VN4  0   16   DC 2
*
* SECOND CURRENT NOISE SOURCE
*
DN5  17  18   DIN
DN6  18  19   DIN
VN5  17   0   DC 2
VN6  0   19   DC 2
*
* FIRST GAIN STAGE
*
R7   20 98     1
G1   98 20     5  6  119.8
D3   20 21     DX
D4   22 20     DX
E1   97 21     POLY(1) 97 33 -2.4 1
E2   22 51     POLY(1) 33 51 -2.4 1
*
* GAIN STAGE & DOMINANT POLE AT 0.127 HZ
*
R8   23 98     1.253E9
C3   23 98     1E-9
G2   98 23     20 33  33.3E-6
V1   97 24     1.8
V2   25 51     1.8
D5   23 24     DX
D6   25 23     DX
*
* NEGATIVE ZERO AT -4MHZ
*
R9   26 27     1
C4   26 27     -39.75E-9
R10  27 98     1E-6
E3   26 98     23 33  1E6
*
* COMMON-MODE GAIN NETWORK WITH ZERO AT 63 HZ
*
R13  30 31     1
L2   31 98     2.52E-3
G4   98 30     3  33  0.316E-6
D7   30 97     DX
D8   51 30     DX
*
* POLE AT 2 MHZ
*
R14  32 98     1
C5   32 98     79.5E-9
G5   98 32     27 33  1
*
* OUTPUT STAGE
*
R15  33 97     1
R16  33 51     1
GSY  99 50     POLY(1) 99 50 0.725E-3 0.0425E-3
F1   34  0     V3  1
F2   0  34     V4  1
R17  34 99     400
R18  34 50     400
L3   34 39     2E-7
G6   37 50     32 34  2.5E-3
G7   38 50     34 32  2.5E-3
G8   34 99     99 32  2.5E-3
G9   50 34     32 50  2.5E-3
V3   35 34     6.8
V4   34 36     4.4
D9   32 35     DX
D10  36 32     DX
D11  99 37     DX
D12  99 38     DX
D13  50 37     DY
D14  50 38     DY
*
* MODELS USED
*
.MODEL QX NPN(BF=333.3E6)
.MODEL DX   D(IS=1E-15)
.MODEL DY   D(IS=1E-15 BV=50)
.MODEL DEN  D(IS=1E-12, RS=14.61K, KF=2E-17, AF=1)
.MODEL DIN  D(IS=1E-12, RS=7.55E-6, KF=3E-15, AF=1)
.ENDS

* OP177F SPICE Macro-model                 12/90, Rev. B
*                                           JCB / PMI
*
* Revision History:
*   REV. B
*     Re-ordered subcircuit call out nodes to put the
*     output node last.
*     Changed Ios from 1.5E-9 to 0.75E-9
*     Added F1 and F2 to fix short circuit current limit.
*
*
* This version of the OP-177 model simulates the worst case
* parameters of the 'F' grade.  The worst case parameters
* used correspond to those in the data book.
*
*
* Copyright 1990 by Analog Devices, Inc.
*
* Refer to "README.DOC" file for License Statement.  Use of this model
* indicates your acceptance with the terms and provisions in the License Statement.
*
* Node assignments
*                non-inverting input
*                | inverting input
*                | | positive supply
*                | | |  negative supply
*                | | |  |  output
*                | | |  |  |
.SUBCKT OP177F   1 2 99 50 39
*
* INPUT STAGE & POLE AT 6 MHZ
*
R1   2   3    5E11
R2   1   3    5E11
R3   5  97    0.0606
R4   6  97    0.0606
CIN  1   2    4E-12
C2   5   6    218.9E-9
I1   4  51    1
IOS  1   2    0.75E-9
EOS  9  10    POLY(1)  30 33  25E-6  1
Q1   5  2  7  QX
Q2   6  9  8  QX
R5   7   4    0.009
R6   8   4    0.009
D1   2   1    DX
D2   1   2    DX
EN   10  1    12  0  1
GN1  0   2    15  0  1
GN2  0   1    18  0  1
*
EREF  98 0    33  0  1
EPLUS 97 0    99  0  1
ENEG  51 0    50  0  1
*
* VOLTAGE NOISE SOURCE WITH FLICKER NOISE
*
DN1  11  12   DEN
DN2  12  13   DEN
VN1  11   0   DC 2
VN2  0   13   DC 2
*
* CURRENT NOISE SOURCE WITH FLICKER NOISE
*
DN3  14  15   DIN
DN4  15  16   DIN
VN3  14   0   DC 2
VN4  0   16   DC 2
*
* SECOND CURRENT NOISE SOURCE
*
DN5  17  18   DIN
DN6  18  19   DIN
VN5  17   0   DC 2
VN6  0   19   DC 2
*
* FIRST GAIN STAGE
*
R7   20 98     1
G1   98 20     5  6  119.8
D3   20 21     DX
D4   22 20     DX
E1   97 21     POLY(1) 97 33 -2.4 1
E2   22 51     POLY(1) 33 51 -2.4 1
*
* GAIN STAGE & DOMINANT POLE AT 0.127 HZ
*
R8   23 98     1.253E9
C3   23 98     1E-9
G2   98 23     20 33  33.3E-6
V1   97 24     1.8
V2   25 51     1.8
D5   23 24     DX
D6   25 23     DX
*
* NEGATIVE ZERO AT -4MHZ
*
R9   26 27     1
C4   26 27     -39.75E-9
R10  27 98     1E-6
E3   26 98     23 33  1E6
*
* COMMON-MODE GAIN NETWORK WITH ZERO AT 63 HZ
*
R13  30 31     1
L2   31 98     2.52E-3
G4   98 30     3  33  0.316E-6
D7   30 97     DX
D8   51 30     DX
*
* POLE AT 2 MHZ
*
R14  32 98     1
C5   32 98     79.5E-9
G5   98 32     27 33  1
*
* OUTPUT STAGE
*
R15  33 97     1
R16  33 51     1
GSY  99 50     POLY(1) 99 50 0.725E-3 0.0425E-3
F1   34  0     V3  1
F2   0  34     V4  1
R17  34 99     400
R18  34 50     400
L3   34 39     2E-7
G6   37 50     32 34  2.5E-3
G7   38 50     34 32  2.5E-3
G8   34 99     99 32  2.5E-3
G9   50 34     32 50  2.5E-3
V3   35 34     6.8
V4   34 36     4.4
D9   32 35     DX
D10  36 32     DX
D11  99 37     DX
D12  99 38     DX
D13  50 37     DY
D14  50 38     DY
*
* MODELS USED
*
.MODEL QX NPN(BF=250E6)
.MODEL DX   D(IS=1E-15)
.MODEL DY   D(IS=1E-15 BV=50)
.MODEL DEN  D(IS=1E-12, RS=14.61K, KF=2E-17, AF=1)
.MODEL DIN  D(IS=1E-12, RS=7.55E-6, KF=3E-15, AF=1)
.ENDS

* OP177G SPICE Macro-model                 12/90, Rev. B
*                                           JCB / PMI
*
* Revision History:
*   REV. B
*     Re-ordered subcircuit call out nodes to put the
*     output node last.
*     Changed Ios from 2.8E-9 to 1.4E-9
*     Added F1 and F2 to fix short circuit current limit.
*
*
* This version of the OP-177 model simulates the worst case
* parameters of the 'G' grade.  The worst case parameters
* used correspond to those in the data book.
*
* Copyright 1990 by Precision Monolithics, Inc.
*
* Refer to "README.DOC" file for License Statement.  Use of this model
* indicates your acceptance with the terms and provisions in the License Statement.
*
* Node assignments
*                non-inverting input
*                | inverting input
*                | | positive supply
*                | | |  negative supply
*                | | |  |  output
*                | | |  |  |
.SUBCKT OP177G   1 2 99 50 39
*
* INPUT STAGE & POLE AT 6 MHZ
*
R1   2   3    5E11
R2   1   3    5E11
R3   5  97    0.0606
R4   6  97    0.0606
CIN  1   2    4E-12
C2   5   6    218.9E-9
I1   4  51    1
IOS  1   2    1.4E-9
EOS  9  10    POLY(1)  30 33  60E-6  1
Q1   5  2  7  QX
Q2   6  9  8  QX
R5   7   4    0.009
R6   8   4    0.009
D1   2   1    DX
D2   1   2    DX
EN   10  1    12  0  1
GN1  0   2    15  0  1
GN2  0   1    18  0  1
*
EREF  98 0    33  0  1
EPLUS 97 0    99  0  1
ENEG  51 0    50  0  1
*
* VOLTAGE NOISE SOURCE WITH FLICKER NOISE
*
DN1  11  12   DEN
DN2  12  13   DEN
VN1  11   0   DC 2
VN2  0   13   DC 2
*
* CURRENT NOISE SOURCE WITH FLICKER NOISE
*
DN3  14  15   DIN
DN4  15  16   DIN
VN3  14   0   DC 2
VN4  0   16   DC 2
*
* SECOND CURRENT NOISE SOURCE
*
DN5  17  18   DIN
DN6  18  19   DIN
VN5  17   0   DC 2
VN6  0   19   DC 2
*
* FIRST GAIN STAGE
*
R7   20 98     1
G1   98 20     5  6  119.9
D3   20 21     DX
D4   22 20     DX
E1   97 21     POLY(1) 97 33 -2.4 1
E2   22 51     POLY(1) 33 51 -2.4 1
*
* GAIN STAGE & DOMINANT POLE AT 0.318 HZ
*
R8   23 98     501E6
C3   23 98     1E-9
G2   98 23     20 33  33.3E-6
V1   97 24     1.8
V2   25 51     1.8
D5   23 24     DX
D6   25 23     DX
*
* NEGATIVE ZERO AT -4MHZ
*
R9   26 27     1
C4   26 27     -39.75E-9
R10  27 98     1E-6
E3   26 98     23 33  1E6
*
* COMMON-MODE GAIN NETWORK WITH ZERO AT 355 HZ
*
R13  30 31     1
L2   31 98     0.448E-3
G4   98 30     3  33  1.778E-6
D7   30 97     DX
D8   51 30     DX
*
* POLE AT 2 MHZ
*
R14  32 98     1