*==========================================
* LM101A
* Linear Technology LM101A op amp model  
* Written: 08-23-1989 15:55:44 Type: Bipolar npn input, external comp.
* Typical specs: 
* Vos=7.0E-04, Ib=3.0E-08, Ios=1.5E-09, GBP=9.0E+05Hz, Phase mar.= 70 deg, 
* SR(+)=5.0E-01V/us, SR(-)=4.8E-01V/us, Av= 104 dB, CMMR= 96 dB, 
* Vsat(+)=1.00V, Vsat(-)=1.00V, Isc=+/-30.0mA, Iq= 1800uA
* 
* Connections: + - V+V-O CaCb 
.SUBCKT LM101A 3 2 7 4 6 1 8 
* USE C=30 PF IN MAIN CIRCUIT (CA TO CB).
* INPUT
RC1 7 80 5.895E+03
RC2 7 90 5.895E+03
Q1 80 2 10 QM1 
Q2 90 3 11 QM2 
C1 80 90 5.460E-12
RE1 10 12 2.438E+03
RE2 11 12 2.438E+03
IEE 12 4 1.506E-05
RE 12 0 1.328E+07
CE 12 0 1.579E-12
* INTERMEDIATE 
GCM 0 8 12 0 2.689E-09
GA 8 0 80 90 1.696E-04
R2 8 0 1.000E+05
* EXTERNAL COMP CAP USED FOR C2 (SEE NOTE ABOVE).
GB 1 0 8 0 1.401E+02
* OUTPUT 
RO1 1 6 3.333E+01
RO2 1 0 6.667E+01
RC 17 0 4.758E-05
GC 0 17 6 0 2.102E+04
D1 1 17 DM1 
D2 17 1 DM1 
D3 6 13 DM2 
D4 14 6 DM2 
VC 7 13 1.808E+00
VE 14 4 1.808E+00
IP 7 4 1.785E-03
DSUB 4 7 DM2 
* MODELS 
.MODEL QM1 NPN (IS=8.000E-16 BF=2.439E+02)
.MODEL QM2 NPN (IS=8.220E-16 BF=2.564E+02)
.MODEL DM1 D (IS=3.337E-15)
.MODEL DM2 D (IS=8.000E-16)
.ENDS LM101A

*====================================================
* LM108
* Linear Technology LM108 op amp model (with calls for LH2108)
* Written: 08-23-1989 15:42:36 Type: Bipolar npn input, external comp.
* Typical specs: 
* Vos=7.0E-04, Ib=5.0E-10, Ios=5.0E-11, GBP=6.0E+05Hz, Phase mar.= 70 deg, 
* SR(+)=2.0E-01V/us, SR(-)=1.9E-01V/us, Av= 110 dB, CMMR= 100 dB, 
* Vsat(+)=1.00V, Vsat(-)=1.00V, Isc=+/- 6.0mA, Iq=  300uA
* (input differential mode clamp active)
* 
* Connections: + - V+V-O CaCb 
.SUBCKT LM108  3 2 7 4 6 1 8 
* USE C=30 PF IN MAIN CIRCUIT (CA TO CB).
* INPUT
RC1 7 80 8.842E+03
RC2 7 90 8.842E+03
Q1 80 2 10 QM1 
Q2 90 3 11 QM2 
DDM1 2 3 DM2 
DDM2 3 2 DM2 
C1 80 90 5.460E-12
RE1 10 12 2.246E+02
RE2 11 12 2.246E+02
IEE 12 4 6.001E-06
RE 12 0 3.333E+07
CE 12 0 1.579E-12
* INTERMEDIATE 
GCM 0 8 12 0 1.131E-09
GA 8 0 80 90 1.131E-04
R2 8 0 1.000E+05
* EXTERNAL COMP CAP USED FOR C2 (SEE NOTE ABOVE).
GB 1 0 8 0 3.146E+01
* OUTPUT 
RO1 1 6 1.111E+02
RO2 1 0 8.889E+02
RC 17 0 3.533E-04
GC 0 17 6 0 2.830E+03
D1 1 17 DM1 
D2 17 1 DM1 
D3 6 13 DM2 
D4 14 6 DM2 
VC 7 13 1.766E+00
VE 14 4 1.766E+00
IP 7 4 2.940E-04
DSUB 4 7 DM2 
* MODELS 
.MODEL QM1 NPN (IS=8.000E-16 BF=5.714E+03)
.MODEL QM2 NPN (IS=8.220E-16 BF=6.316E+03)
.MODEL DM1 D (IS=1.192E-10)
.MODEL DM2 D (IS=8.000E-16)
.ENDS LM108
* 
*====================================================
*LH2108
.SUBCKT LH2108 3 2 7 4 6 1 8 
X_LH2108 3 2 7 4 6 1 8 LM108
.ENDS LH2108

*====================================================
* LM108A
* Linear Technology LM108A op amp model (with calls for LH2108A)
* Written: 08-23-1989 15:40:03 Type: Bipolar npn input, external comp.
* Typical specs: 
* Vos=3.0E-04, Ib=5.0E-10, Ios=5.0E-11, GBP=6.0E+05Hz, Phase mar.= 70 deg, 
* SR(+)=2.0E-01V/us, SR(-)=1.9E-01V/us, Av= 110 dB, CMMR= 110 dB, 
* Vsat(+)=1.00V, Vsat(-)=1.00V, Isc=+/- 6.0mA, Iq=  300uA
* (input differential mode clamp active)
* 
* Connections: + - V+V-O CaCb 
.SUBCKT LM108A 3 2 7 4 6 1 8 
* USE C=30 PF IN MAIN CIRCUIT (CA TO CB).
* INPUT
RC1 7 80 8.842E+03
RC2 7 90 8.842E+03
Q1 80 2 10 QM1 
Q2 90 3 11 QM2 
DDM1 2 3 DM2 
DDM2 3 2 DM2 
C1 80 90 5.460E-12
RE1 10 12 2.246E+02
RE2 11 12 2.246E+02
IEE 12 4 6.001E-06
RE 12 0 3.333E+07
CE 12 0 1.579E-12
* INTERMEDIATE 
GCM 0 8 12 0 3.576E-10
GA 8 0 80 90 1.131E-04
R2 8 0 1.000E+05
* EXTERNAL COMP CAP USED FOR C2 (SEE NOTE ABOVE).
GB 1 0 8 0 3.146E+01
* OUTPUT 
RO1 1 6 1.111E+02
RO2 1 0 8.889E+02
RC 17 0 3.533E-04
GC 0 17 6 0 2.830E+03
D1 1 17 DM1 
D2 17 1 DM1 
D3 6 13 DM2 
D4 14 6 DM2 
VC 7 13 1.766E+00
VE 14 4 1.766E+00
IP 7 4 2.940E-04
DSUB 4 7 DM2 
* MODELS 
.MODEL QM1 NPN (IS=8.000E-16 BF=5.714E+03)
.MODEL QM2 NPN (IS=8.093E-16 BF=6.316E+03)
.MODEL DM1 D (IS=1.192E-10)
.MODEL DM2 D (IS=8.000E-16)
.ENDS LM108A
* 
*====================================================
* LH2108A
.SUBCKT LH2108A 3 2 7 4 6 1 8 
X_LH2108A 3 2 7 4 6 1 8 LM108A
.ENDS LH2108A

*====================================================
* LM10C
* Linear Technology LM10C op amp model
* Written: 08-13-1990 12:54:51 Type: Bipolar pnp input, internal comp.
* Typical specs: 
* Vos=5.0E-04, Ib=1.2E-08, Ios=4.0E-10, GBP=1.0E+05Hz, Phase mar.= 30 deg, 
* SR(-)=1.5E-01V/us, SR(+)=1.4E-01V/us, Av= 114 dB, CMMR= 102 dB, 
* Vsat(+)=0.01V, Vsat(-)=0.01V, Isc=+/-20.0mA, Iq=300uA.
* (input common mode clamp active)
* 
* Connections: + - V+V-O RoRf
.SUBCKT LM10C 3 2 7 4 6 1 8
RC1 4 80 5.305E+04
RC2 4 90 5.305E+04
Q1 80 102 10 QM1 
Q2 90 103 11 QM2 
RB1 2 102 4.000E+03
RB2 3 103 4.000E+03
DCM1 105 102 DM2 
DCM2 105 103 DM2 
VCMC 105 4 4.000E-01
C1 80 90 2.598E-11
RE1 10 12 4.134E+04
RE2 11 12 4.134E+04
IEE 7 12 4.524E-06
RE 12 0 4.421E+07
CE 12 0 1.579E-12
* INTERMEDIATE 
GCM 0 85 12 0 1.497E-10
GA 85 0 80 90 1.885E-05
R2 85 0 1.000E+05
C2 15 85 3.000E-11
GB 15 0 85 0 2.455E+02
* OUTPUT 
RO1 15 110 1.000E+02
RO2A 15 0 1.083E+03
RO2B 6 110 8.170E+02
EC 17 0 110 0 1
D1 15 17 DM1
D2 17 15 DM1
D3 110 13 DM2 
D4 14 110 DM2 
D5 6 110 DM2 
D6 110 6 DM2 
VC 7 13 8.075E-01
VE 14 4 8.075E-01
IP 7 4 2.955E-04
DSUB 4 7 DM2 
* REFERENCE
ER 1 4 8 200 70E3
VR 200 4 0.200
RRIN 200 4 1E9
IBR 8 4 22E-9
* MODELS 
.MODEL QM1 PNP (IS=8.000E-16 BF=1.844E+02)
.MODEL QM2 PNP (IS=8.156E-16 BF=1.907E+02)
.MODEL DM1 D (IS=2.784E-32)
.MODEL DM2 D (IS=8.000E-16 BV=4.9500E+01)
*
.ENDS LM10C

*====================================================
* LM301A
* Linear Technology LM301A op amp model
* Written: 08-23-1989 15:55:44 Type: Bipolar npn input, external comp.
* LM301A updated from original model on 05-21-1990
* Typical specs: 
* Vos=2.0E-03, Ib=7.0E-08, Ios=3.0E-09, GBP=9.0E+05Hz, Phase mar.= 70 deg,
* SR(+)=5.0E-01V/us, SR(-)=4.8E-01V/us, Av= 104 dB, CMMR= 96 dB, 
* Vsat(+)=1.00V, Vsat(-)=1.00V, Isc=+/-30.0mA, Iq= 1800uA
* 
* Connections: + - V+V-O CaCb 
.SUBCKT LM301A 3 2 7 4 6 1 8 
* USE C=30 PF IN MAIN CIRCUIT (CA TO CB).
* INPUT
RC1 7 80 5.895E+03
RC2 7 90 5.895E+03
Q1 80 2 10 QM1 
Q2 90 3 11 QM2 
C1 80 90 5.460E-12
RE1 10 12 2.438E+03
RE2 11 12 2.438E+03
IEE 12 4 1.506E-05
RE 12 0 1.328E+07
CE 12 0 1.579E-12
* INTERMEDIATE 
GCM 0 8 12 0 2.689E-09
GA 8 0 80 90 1.696E-04
R2 8 0 1.000E+05
* EXTERNAL COMP CAP USED FOR C2 (SEE NOTE ABOVE).
GB 1 0 8 0 1.401E+02
* OUTPUT 
RO1 1 6 3.333E+01
RO2 1 0 6.667E+01
RC 17 0 4.758E-05
GC 0 17 6 0 2.102E+04
D1 1 17 DM1 
D2 17 1 DM1 
D3 6 13 DM2 
D4 14 6 DM2 
VC 7 13 1.808E+00
VE 14 4 1.808E+00
IP 7 4 1.785E-03
DSUB 4 7 DM2 
* MODELS 
.MODEL QM1 NPN (IS=8.000E-16 BF=1.049E+02)
.MODEL QM2 NPN (IS=8.647E-16 BF=1.095E+02)
.MODEL DM1 D (IS=3.337E-15)
.MODEL DM2 D (IS=8.000E-16)
.ENDS LM301A

*====================================================
* LM308
* Linear Technology LM308 op amp model  
* Written: 08-23-1989 15:46:51 Type: Bipolar npn input, external comp.
* Typical specs: 
* Vos=2.0E-03, Ib=1.5E-09, Ios=2.0E-10, GBP=6.0E+05Hz, Phase mar.= 70 deg, 
* SR(+)=2.0E-01V/us, SR(-)=1.9E-01V/us, Av= 110 dB, CMMR= 100 dB, 
* Vsat(+)=1.00V, Vsat(-)=1.00V, Isc=+/- 6.0mA, Iq=  300uA
* (input differential mode clamp active)
* 
* Connections: + - V+V-O CaCb 
.SUBCKT LM308 3 2 7 4 6 1 8 
* USE C=30 PF IN MAIN CIRCUIT (CA TO CB).
* INPUT
RC1 7 80 8.842E+03
RC2 7 90 8.842E+03
Q1 80 2 10 QM1 
Q2 90 3 11 QM2 
DDM1 2 3 DM2 
DDM2 3 2 DM2 
C1 80 90 5.460E-12
RE1 10 12 2.245E+02
RE2 11 12 2.245E+02
IEE 12 4 6.003E-06
RE 12 0 3.332E+07
CE 12 0 1.579E-12
* INTERMEDIATE 
GCM 0 8 12 0 1.131E-09
GA 8 0 80 90 1.131E-04
R2 8 0 1.000E+05
* EXTERNAL COMP CAP USED FOR C2 (SEE NOTE ABOVE).
GB 1 0 8 0 3.146E+01
* OUTPUT 
RO1 1 6 1.111E+02
RO2 1 0 8.889E+02
RC 17 0 3.533E-04
GC 0 17 6 0 2.830E+03
D1 1 17 DM1 
D2 17 1 DM1 
D3 6 13 DM2 
D4 14 6 DM2 
VC 7 13 1.766E+00
VE 14 4 1.766E+00
IP 7 4 2.940E-04
DSUB 4 7 DM2 
* MODELS 
.MODEL QM1 NPN (IS=8.000E-16 BF=1.875E+03)
.MODEL QM2 NPN (IS=8.643E-16 BF=2.143E+03)
.MODEL DM1 D (IS=1.192E-10)
.MODEL DM2 D (IS=8.000E-16)
.ENDS LM308

*====================================================
* LM308A
* Linear Technology LM308A op amp model  
* Written: 08-23-1989 15:45:03 Type: Bipolar npn input, external comp.
* Typical specs: 
* Vos=3.0E-04, Ib=1.5E-09, Ios=2.0E-10, GBP=6.0E+05Hz, Phase mar.= 70 deg, 
* SR(+)=2.0E-01V/us, SR(-)=1.9E-01V/us, Av= 110 dB, CMMR= 110 dB, 
* Vsat(+)=1.00V, Vsat(-)=1.00V, Isc=+/- 6.0mA, Iq=  300uA
* (input differential mode clamp active)
* 
* Connections: + - V+V-O CaCb 
.SUBCKT LM308A 3 2 7 4 6 1 8 
* USE C=30 PF IN MAIN CIRCUIT (CA TO CB).
* INPUT
RC1 7 80 8.842E+03
RC2 7 90 8.842E+03
Q1 80 2 10 QM1 
Q2 90 3 11 QM2 
DDM1 2 3 DM2 
DDM2 3 2 DM2 
C1 80 90 5.460E-12
RE1 10 12 2.245E+02
RE2 11 12 2.245E+02
IEE 12 4 6.003E-06
RE 12 0 3.332E+07
CE 12 0 1.579E-12
* INTERMEDIATE 
GCM 0 8 12 0 3.576E-10
GA 8 0 80 90 1.131E-04
R2 8 0 1.000E+05
* EXTERNAL COMP CAP USED FOR C2 (SEE NOTE ABOVE).
GB 1 0 8 0 3.146E+01
* OUTPUT 
RO1 1 6 1.111E+02
RO2 1 0 8.889E+02
RC 17 0 3.533E-04
GC 0 17 6 0 2.830E+03
D1 1 17 DM1 
D2 17 1 DM1 
D3 6 13 DM2 
D4 14 6 DM2 
VC 7 13 1.766E+00
VE 14 4 1.766E+00
IP 7 4 2.940E-04
DSUB 4 7 DM2 
* MODELS 
.MODEL QM1 NPN (IS=8.000E-16 BF=1.875E+03)
.MODEL QM2 NPN (IS=8.093E-16 BF=2.143E+03)
.MODEL DM1 D (IS=1.192E-10)
.MODEL DM2 D (IS=8.000E-16)
.ENDS LM308A

*====================================================
* LM318
* Linear Technology LM318 op amp model (with calls for LM318S8)
* Written: 11-21-1989 Type: Bipolar npn input, internal comp.
* LM318 updated from original model on 05-22-1990
* Typical specs: 
*       Ref. LM318 data sheet, LTC 1990 databook p2-311
* Comments:
*       Uses extended phase compensation; input differential mode clamp.
* 
* Connections: + - V+V-O 
.SUBCKT LM318 3 2 7 4 6
* INPUT
RC1 7 80 7.074E+02
RC2 7 90 7.074E+02
Q1 80 2 10 QM1 
Q2 90 3 11 QM1
*
C1 80 91 300E-12
RXC1 91 90 1E3
CXC1 91 90 15E-12
C2 1 8 5.000E-12
*
RB1 2 102 1.0000E+00
RB2 3 103 1.0000E+00
DDM1 102 104 DM2 
VZ1 104 103 5.5 
DDM2 103 105 DM2 
VZ2 105 102 5.5 
RE1 10 12 6.209E+02
RE2 11 12 6.209E+02
IEE 12 4 6.000E-04
RE 12 0 3.332E+05
CE 12 0 2.632E-13
*
GCM 0 8 12 0 1.414E-08
GA 8 0 80 90 1.414E-03
R2 8 0 1.000E+05
GB 1 0 8 0 5.318E+01
RO2 1 0 7.4000E+01
*
RS 1 6 1
ECL 18 0 1 6 3.172E+01
GCL 0 8 20 0 1
RCL 20 0 1E3
D1 18 20 DM1
D2 20 18 DM1
*
D3A 131 70 DM3
D3B 13 131 DM3
GPL 0 8 70 7 1
VC 13 6 3.6473
RPLA 7 70 1E4
RPLB 7 131 1E5
D4A 60 141 DM3
D4B 141 14 DM3
GNL 0 8 60 4 1
VE 6 14 3.6473
RNLA 60 4 1E4
RNLB 141 4 1E5
*
IP 7 4 4.400E-03
DSUB 4 7 DM2 
* MODELS 
.MODEL QM1 NPN (IS=8.000E-16 BF=1.818E+03)
.MODEL QM2 NPN (IS=9.347E-16 BF=2.222E+03)
*
.MODEL DM1 D (IS=1.000E-19)
.MODEL DM2 D (IS=8.000E-16)
.MODEL DM3 D (IS=1.000E-20)
.ENDS LM318
* 
*====================================================
* LM318S8
.SUBCKT LM318S8 3 2 7 4 6
X_LM318S8 3 2 7 4 6 LM318
.ENDS LM318S8

*====================================================
* LF155
* Linear Technology LF155 op amp model  
* Written: 05-10-1990 18:16:50 Type: PFET input, internal comp.
* Typical specs: 
* Vos=2.0E-03, Ib=3.0E-11, Ios=3.0E-12, GBP=2.5E+06Hz, Phase mar.= 45 deg, 
* SR(low)=7.0E+00V/us, SR(high)=1.4E+01V/us, Av=106.0dB, CMRR=100.0dB, 
* Vsat(+)=2.0V, Vsat(-)=2.0V, Isc=+/-25mA, Rout= 100ohms, Iq= 2mA.
* (input cm clamp *optional*)
* 
* Connections: + - V+V-O 
.SUBCKT LF155 3 2 7 4 6 
* INPUT
VCM2 40 4 2.0000E+00
RD1 40 80 2.1221E+03
RD2 40 90 2.1221E+03
J1 80 102 12 JM1 
J2 90 103 12 JM2 
CIN 2 3 4.0000E-12
RG1 2 102 2.0000E+00
RG2 3 103 2.0000E+00
** CM CLAMP 
* DCM1 107 103 DM4 
* DCM2 105 107 DM4 
* VCMC 105 4 4.0E+00
* ECMP 106 4 103 4 1 
* RCMP 107 106 1E+04
* DCM3 109 102 DM4 
* DCM4 105 109 DM4 
* ECMN 108 4 102 4 1 
* RCMN 109 108 1E+04
** END CM CLAMP 
C1 80 90 1.5000E-11
ISS 7 12 2.8000E-04
GOSIT 7 12 90 80 1.4000E-04
* INTERMEDIATE 
GCM 0 8 12 0 4.7124E-09
GA 8 0 80 90 4.7124E-04
R2 8 0 1.0000E+05
C2 1 8 3.0000E-11
GB 1 0 8 0 4.2768E+01
RO2 1 0 9.9000E+01
* OUTPUT 
RSO 1 6 1.0000E+00
ECL 18 0 1 6 2.0124E+01
GCL 0 8 20 0 1.0000E+00
RCL 20 0 1.0000E+03
D1 18 20 DM1 
D2 20 18 DM1 
* 
D3A 131 70 DM3 
D3B 13 131 DM3 
GPL 0 8 70 7 1.0000E+00
VC 13 6 3.1403E+00
RPLA 7 70 1.0000E+04
RPLB 7 131 1.0000E+05
D4A 60 141 DM3 
D4B 141 14 DM3 
GNL 0 8 60 4 1.0000E+00
VE 6 14 3.1403E+00
RNLA 60 4 1.0000E+04
RNLB 141 4 1.0000E+05
* 
IP 7 4 1.7200E-03
DSUB 4 7 DM2 
* MODELS 
.MODEL JM1 PJF (IS=3.1500E-11 BETA=3.9655E-04 VTO=-1.000000E+00)
.MODEL JM2 PJF (IS=2.8500E-11 BETA=3.9655E-04 VTO=-9.980000E-01)
.MODEL DM1 D (IS=1.0000E-15)
.MODEL DM2 D (IS=8.0000E-16 BV=5.2800E+01)
.MODEL DM3 D (IS=1.0000E-16)
.MODEL DM4 D (IS=1.0000E-09)
.ENDS LF155

*====================================================
* LF155A
* Linear Technology LF155A op amp model  
* Written: 05-10-1990 18:19:48 Type: PFET input, internal comp.
* Typical specs: 
* Vos=1.0E-03, Ib=3.0E-11, Ios=3.0E-12, GBP=2.5E+06Hz, Phase mar.= 45 deg, 
* SR(low)=7.0E+00V/us, SR(high)=1.4E+01V/us, Av=106.0dB, CMRR=100.0dB, 
* Vsat(+)=2.0V, Vsat(-)=2.0V, Isc=+/-25mA, Rout= 100ohms, Iq= 2mA.
* (input cm clamp *optional*)
* 
* Connections: + - V+V-O 
.SUBCKT LF155A 3 2 7 4 6 
* INPUT
VCM2 40 4 2.0000E+00
RD1 40 80 2.1221E+03
RD2 40 90 2.1221E+03
J1 80 102 12 JM1 
J2 90 103 12 JM2 
CIN 2 3 4.0000E-12
RG1 2 102 2.0000E+00
RG2 3 103 2.0000E+00
** CM CLAMP 
* DCM1 107 103 DM4 
* DCM2 105 107 DM4 
* VCMC 105 4 4.0E+00
* ECMP 106 4 103 4 1 
* RCMP 107 106 1E+04
* DCM3 109 102 DM4 
* DCM4 105 109 DM4 
* ECMN 108 4 102 4 1 
* RCMN 109 108 1E+04
** END CM CLAMP 
C1 80 90 1.5000E-11
ISS 7 12 2.8000E-04
GOSIT 7 12 90 80 1.4000E-04
* INTERMEDIATE 
GCM 0 8 12 0 4.7124E-09
GA 8 0 80 90 4.7124E-04
R2 8 0 1.0000E+05
C2 1 8 3.0000E-11
GB 1 0 8 0 4.2768E+01
RO2 1 0 9.9000E+01
* OUTPUT 
RSO 1 6 1.0000E+00
ECL 18 0 1 6 2.0124E+01
GCL 0 8 20 0 1.0000E+00
RCL 20 0 1.0000E+03
D1 18 20 DM1 
D2 20 18 DM1 
* 
D3A 131 70 DM3 
D3B 13 131 DM3 
GPL 0 8 70 7 1.0000E+00
VC 13 6 3.1403E+00
RPLA 7 70 1.0000E+04
RPLB 7 131 1.0000E+05
D4A 60 141 DM3 
D4B 141 14 DM3 
GNL 0 8 60 4 1.0000E+00
VE 6 14 3.1403E+00
RNLA 60 4 1.0000E+04
RNLB 141 4 1.0000E+05
* 
IP 7 4 1.7200E-03
DSUB 4 7 DM2 
* MODELS 
.MODEL JM1 PJF (IS=3.1500E-11 BETA=3.9655E-04 VTO=-1.000000E+00)
.MODEL JM2 PJF (IS=2.8500E-11 BETA=3.9655E-04 VTO=-9.990000E-01)
.MODEL DM1 D (IS=1.0000E-15)
.MODEL DM2 D (IS=8.0000E-16 BV=5.2800E+01)
.MODEL DM3 D (IS=1.0000E-16)
.MODEL DM4 D (IS=1.0000E-09)
.ENDS LF155A

*====================================================
* LF156
* Linear Technology LF156 op amp model  
* Written: 05-10-1990 18:26:49 Type: PFET input, internal comp.
* Typical specs: 
* Vos=2.0E-03, Ib=3.0E-11, Ios=3.0E-12, GBP=5.0E+06Hz, Phase mar.= 45 deg, 
* SR(low)=1.2E+01V/us, SR(high)=2.4E+01V/us, Av=106.0dB, CMRR=100.0dB, 
* Vsat(+)=2.0V, Vsat(-)=2.0V, Isc=+/-25mA, Rout=  75ohms, Iq= 5mA.
* (input cm clamp *optional*)
* 
* Connections: + - V+V-O 
.SUBCKT LF156 3 2 7 4 6 
* INPUT
VCM2 40 4 2.0000E+00
RD1 40 80 1.0610E+03
RD2 40 90 1.0610E+03
J1 80 102 12 JM1 
J2 90 103 12 JM2 
CIN 2 3 4.0000E-12
RG1 2 102 2.0000E+00
RG2 3 103 2.0000E+00
** CM CLAMP 
* DCM1 107 103 DM4 
* DCM2 105 107 DM4 
* VCMC 105 4 4.0E+00
* ECMP 106 4 103 4 1 
* RCMP 107 106 1E+04
* DCM3 109 102 DM4 
* DCM4 105 109 DM4 
* ECMN 108 4 102 4 1 
* RCMN 109 108 1E+04
** END CM CLAMP 
C1 80 90 1.5000E-11
ISS 7 12 4.8000E-04
GOSIT 7 12 90 80 2.4000E-04
* INTERMEDIATE 
GCM 0 8 12 0 9.4248E-09
GA 8 0 80 90 9.4248E-04
R2 8 0 1.0000E+05
C2 1 8 3.0000E-11
GB 1 0 8 0 2.8609E+01
RO2 1 0 7.4000E+01
* OUTPUT 
RSO 1 6 1.0000E+00
ECL 18 0 1 6 2.0690E+01
GCL 0 8 20 0 1.0000E+00
RCL 20 0 1.0000E+03
D1 18 20 DM1 
D2 20 18 DM1 
* 
D3A 131 70 DM3 
D3B 13 131 DM3 
GPL 0 8 70 7 1.0000E+00
VC 13 6 3.1552E+00
RPLA 7 70 1.0000E+04
RPLB 7 131 1.0000E+05
D4A 60 141 DM3 
D4B 141 14 DM3 
GNL 0 8 60 4 1.0000E+00
VE 6 14 3.1552E+00
RNLA 60 4 1.0000E+04
RNLB 141 4 1.0000E+05
* 
IP 7 4 4.5200E-03
DSUB 4 7 DM2 
* MODELS 
.MODEL JM1 PJF (IS=3.1500E-11 BETA=9.2528E-04 VTO=-1.000000E+00)
.MODEL JM2 PJF (IS=2.8500E-11 BETA=9.2528E-04 VTO=-9.980000E-01)
.MODEL DM1 D (IS=1.0000E-15)
.MODEL DM2 D (IS=8.0000E-16 BV=5.2800E+01)
.MODEL DM3 D (IS=1.0000E-16)
.MODEL DM4 D (IS=1.0000E-09)
.ENDS LF156

*====================================================
* LT156A
* Linear Technology LF156A op amp model  
* Written: 05-10-1990 18:28:18 Type: PFET input, internal comp.
* Typical specs: 
* Vos=1.0E-03, Ib=3.0E-11, Ios=3.0E-12, GBP=5.0E+06Hz, Phase mar.= 45 deg, 
* SR(low)=1.2E+01V/us, SR(high)=2.4E+01V/us, Av=106.0dB, CMRR=100.0dB, 
* Vsat(+)=2.0V, Vsat(-)=2.0V, Isc=+/-25mA, Rout=  75ohms, Iq= 5mA.
* (input cm clamp *optional*)
* 
* Connections: + - V+V-O 
.SUBCKT LF156A 3 2 7 4 6 
* INPUT
VCM2 40 4 2.0000E+00
RD1 40 80 1.0610E+03
RD2 40 90 1.0610E+03
J1 80 102 12 JM1 
J2 90 103 12 JM2 
CIN 2 3 4.0000E-12
RG1 2 102 2.0000E+00
RG2 3 103 2.0000E+00
** CM CLAMP 
* DCM1 107 103 DM4 
* DCM2 105 107 DM4 
* VCMC 105 4 4.0E+00
* ECMP 106 4 103 4 1 
* RCMP 107 106 1E+04
* DCM3 109 102 DM4 
* DCM4 105 109 DM4 
* ECMN 108 4 102 4 1 
* RCMN 109 108 1E+04
** END CM CLAMP 
C1 80 90 1.5000E-11
ISS 7 12 4.8000E-04
GOSIT 7 12 90 80 2.4000E-04
* INTERMEDIATE 
GCM 0 8 12 0 9.4248E-09
GA 8 0 80 90 9.4248E-04
R2 8 0 1.0000E+05
C2 1 8 3.0000E-11
GB 1 0 8 0 2.8609E+01
RO2 1 0 7.4000E+01
* OUTPUT 
RSO 1 6 1.0000E+00
ECL 18 0 1 6 2.0690E+01
GCL 0 8 20 0 1.0000E+00
RCL 20 0 1.0000E+03
D1 18 20 DM1 
D2 20 18 DM1 
* 
D3A 131 70 DM3 
D3B 13 131 DM3 
GPL 0 8 70 7 1.0000E+00
VC 13 6 3.1552E+00
RPLA 7 70 1.0000E+04
RPLB 7 131 1.0000E+05
D4A 60 141 DM3 
D4B 141 14 DM3 
GNL 0 8 60 4 1.0000E+00
VE 6 14 3.1552E+00
RNLA 60 4 1.0000E+04
RNLB 141 4 1.0000E+05
* 
IP 7 4 4.5200E-03
DSUB 4 7 DM2 
* MODELS 
.MODEL JM1 PJF (IS=3.1500E-11 BETA=9.2528E-04 VTO=-1.000000E+00)
.MODEL JM2 PJF (IS=2.8500E-11 BETA=9.2528E-04 VTO=-9.990000E-01)
.MODEL DM1 D (IS=1.0000E-15)
.MODEL DM2 D (IS=8.0000E-16 BV=5.2800E+01)
.MODEL DM3 D (IS=1.0000E-16)
.MODEL DM4 D (IS=1.0000E-09)
.ENDS LF156A

*====================================================
* LF355
* Linear Technology LF355 op amp model  
* Written: 05-10-1990 18:12:34 Type: PFET input, internal comp.
* Typical specs: 
* Vos=3.0E-03, Ib=3.0E-11, Ios=3.0E-12, GBP=2.5E+06Hz, Phase mar.= 45 deg, 
* SR(low)=6.0E+00V/us, SR(high)=1.2E+01V/us, Av=106.0dB, CMRR=100.0dB, 
* Vsat(+)=2.0V, Vsat(-)=2.0V, Isc=+/-25mA, Rout= 100ohms, Iq= 2mA.
* (input cm clamp *optional*)
* 
* Connections: + - V+V-O 
.SUBCKT LF355 3 2 7 4 6 
* INPUT
VCM2 40 4 2.0000E+00
RD1 40 80 2.1221E+03
RD2 40 90 2.1221E+03
J1 80 102 12 JM1 
J2 90 103 12 JM2 
CIN 2 3 4.0000E-12
RG1 2 102 2.0000E+00
RG2 3 103 2.0000E+00
** CM CLAMP 
* DCM1 107 103 DM4 
* DCM2 105 107 DM4 
* VCMC 105 4 4.0E+00
* ECMP 106 4 103 4 1 
* RCMP 107 106 1E+04
* DCM3 109 102 DM4 
* DCM4 105 109 DM4 
* ECMN 108 4 102 4 1 
* RCMN 109 108 1E+04
** END CM CLAMP 
C1 80 90 1.5000E-11
ISS 7 12 2.4000E-04
GOSIT 7 12 90 80 1.2000E-04
* INTERMEDIATE 
GCM 0 8 12 0 4.7124E-09
GA 8 0 80 90 4.7124E-04
R2 8 0 1.0000E+05
C2 1 8 3.0000E-11
GB 1 0 8 0 4.2768E+01
RO2 1 0 9.9000E+01
* OUTPUT 
RSO 1 6 1.0000E+00
ECL 18 0 1 6 1.9963E+01
GCL 0 8 20 0 1.0000E+00
RCL 20 0 1.0000E+03
D1 18 20 DM1 
D2 20 18 DM1 
* 
D3A 131 70 DM3 
D3B 13 131 DM3 
GPL 0 8 70 7 1.0000E+00
VC 13 6 3.1360E+00
RPLA 7 70 1.0000E+04
RPLB 7 131 1.0000E+05
D4A 60 141 DM3 
D4B 141 14 DM3 
GNL 0 8 60 4 1.0000E+00
VE 6 14 3.1360E+00
RNLA 60 4 1.0000E+04
RNLB 141 4 1.0000E+05
* 
IP 7 4 1.7600E-03
DSUB 4 7 DM2 
* MODELS 
.MODEL JM1 PJF (IS=3.1500E-11 BETA=4.6264E-04 VTO=-1.000000E+00)
.MODEL JM2 PJF (IS=2.8500E-11 BETA=4.6264E-04 VTO=-9.970000E-01)
.MODEL DM1 D (IS=1.0000E-15)
.MODEL DM2 D (IS=8.0000E-16 BV=4.3200E+01)
.MODEL DM3 D (IS=1.0000E-16)
.MODEL DM4 D (IS=1.0000E-09)
.ENDS LF355

*====================================================
* LF355A
* Linear Technology LF355A op amp model  
* Written: 05-10-1990 18:14:53 Type: PFET input, internal comp.
* Typical specs: 
* Vos=1.0E-03, Ib=3.0E-11, Ios=3.0E-12, GBP=2.5E+06Hz, Phase mar.= 45 deg, 
* SR(low)=7.0E+00V/us, SR(high)=1.4E+01V/us, Av=106.0dB, CMRR=100.0dB, 
* Vsat(+)=2.0V, Vsat(-)=2.0V, Isc=+/-25mA, Rout= 100ohms, Iq= 2mA.
* (input cm clamp *optional*)
* 
* Connections: + - V+V-O 
.SUBCKT LF355A 3 2 7 4 6 
* INPUT
VCM2 40 4 2.0000E+00
RD1 40 80 2.1221E+03
RD2 40 90 2.1221E+03
J1 80 102 12 JM1 
J2 90 103 12 JM2 
CIN 2 3 4.0000E-12
RG1 2 102 2.0000E+00
RG2 3 103 2.0000E+00
** CM CLAMP 
* DCM1 107 103 DM4 
* DCM2 105 107 DM4 
* VCMC 105 4 4.0E+00
* ECMP 106 4 103 4 1 
* RCMP 107 106 1E+04
* DCM3 109 102 DM4 
* DCM4 105 109 DM4 
* ECMN 108 4 102 4 1 
* RCMN 109 108 1E+04
** END CM CLAMP 
C1 80 90 1.5000E-11
ISS 7 12 2.8000E-04
GOSIT 7 12 90 80 1.4000E-04
* INTERMEDIATE 
GCM 0 8 12 0 4.7124E-09
GA 8 0 80 90 4.7124E-04
R2 8 0 1.0000E+05
C2 1 8 3.0000E-11
GB 1 0 8 0 4.2768E+01
RO2 1 0 9.9000E+01
* OUTPUT 
RSO 1 6 1.0000E+00
ECL 18 0 1 6 2.0124E+01
GCL 0 8 20 0 1.0000E+00
RCL 20 0 1.0000E+03
D1 18 20 DM1 
D2 20 18 DM1 
* 
D3A 131 70 DM3 
D3B 13 131 DM3 
GPL 0 8 70 7 1.0000E+00
VC 13 6 3.1403E+00
RPLA 7 70 1.0000E+04
RPLB 7 131 1.0000E+05
D4A 60 141 DM3 
D4B 141 14 DM3 
GNL 0 8 60 4 1.0000E+00
VE 6 14 3.1403E+00
RNLA 60 4 1.0000E+04
RNLB 141 4 1.0000E+05
* 
IP 7 4 1.7200E-03
DSUB 4 7 DM2 
* MODELS 
.MODEL JM1 PJF (IS=3.1500E-11 BETA=3.9655E-04 VTO=-1.000000E+00)
.MODEL JM2 PJF (IS=2.8500E-11 BETA=3.9655E-04 VTO=-9.990000E-01)
.MODEL DM1 D (IS=1.0000E-15)
.MODEL DM2 D (IS=8.0000E-16 BV=5.2800E+01)
.MODEL DM3 D (IS=1.0000E-16)
.MODEL DM4 D (IS=1.0000E-09)
.ENDS LF355A

*====================================================
* LF356
* Linear Technology LF356 op amp model  
* Written: 05-10-1990 18:23:43 Type: PFET input, internal comp.
* Typical specs: 
* Vos=3.0E-03, Ib=3.0E-11, Ios=3.0E-12, GBP=5.0E+06Hz, Phase mar.= 45 deg, 
* SR(low)=1.2E+01V/us, SR(high)=2.4E+01V/us, Av=106.0dB, CMRR=100.0dB, 
* Vsat(+)=2.0V, Vsat(-)=2.0V, Isc=+/-25mA, Rout=  75ohms, Iq= 5mA.
* (input cm clamp *optional*)
* 
* Connections: + - V+V-O 
.SUBCKT LF356 3 2 7 4 6 
* INPUT
VCM2 40 4 2.0000E+00
RD1 40 80 1.0610E+03
RD2 40 90 1.0610E+03
J1 80 102 12 JM1 
J2 90 103 12 JM2 
CIN 2 3 4.0000E-12
RG1 2 102 2.0000E+00
RG2 3 103 2.0000E+00
** CM CLAMP 
* DCM1 107 103 DM4 
* DCM2 105 107 DM4 
* VCMC 105 4 4.0E+00
* ECMP 106 4 103 4 1 
* RCMP 107 106 1E+04
* DCM3 109 102 DM4 
* DCM4 105 109 DM4 
* ECMN 108 4 102 4 1 
* RCMN 109 108 1E+04
** END CM CLAMP 
C1 80 90 1.5000E-11
ISS 7 12 4.8000E-04
GOSIT 7 12 90 80 2.4000E-04
* INTERMEDIATE 
GCM 0 8 12 0 9.4248E-09
GA 8 0 80 90 9.4248E-04
R2 8 0 1.0000E+05
C2 1 8 3.0000E-11
GB 1 0 8 0 2.8609E+01
RO2 1 0 7.4000E+01
* OUTPUT 
RSO 1 6 1.0000E+00
ECL 18 0 1 6 2.0690E+01
GCL 0 8 20 0 1.0000E+00
RCL 20 0 1.0000E+03
D1 18 20 DM1 
D2 20 18 DM1 
* 
D3A 131 70 DM3 
D3B 13 131 DM3 
GPL 0 8 70 7 1.0000E+00
VC 13 6 3.1552E+00
RPLA 7 70 1.0000E+04
RPLB 7 131 1.0000E+05
D4A 60 141 DM3 
D4B 141 14 DM3 
GNL 0 8 60 4 1.0000E+00
VE 6 14 3.1552E+00
RNLA 60 4 1.0000E+04
RNLB 141 4 1.0000E+05
* 
IP 7 4 4.5200E-03
DSUB 4 7 DM2 
* MODELS 
.MODEL JM1 PJF (IS=3.1500E-11 BETA=9.2528E-04 VTO=-1.000000E+00)
.MODEL JM2 PJF (IS=2.8500E-11 BETA=9.2528E-04 VTO=-9.970000E-01)
.MODEL DM1 D (IS=1.0000E-15)
.MODEL DM2 D (IS=8.0000E-16 BV=4.3200E+01)
.MODEL DM3 D (IS=1.0000E-16)
.MODEL DM4 D (IS=1.0000E-09)
.ENDS LF356

*====================================================
* LF356A
* Linear Technology LF356A op amp model  
* Written: 05-10-1990 18:25:11 Type: PFET input, internal comp.
* Typical specs: 
* Vos=1.0E-03, Ib=3.0E-11, Ios=3.0E-12, GBP=5.0E+06Hz, Phase mar.= 45 deg, 
* SR(low)=1.2E+01V/us, SR(high)=2.4E+01V/us, Av=106.0dB, CMRR=100.0dB, 
* Vsat(+)=2.0V, Vsat(-)=2.0V, Isc=+/-25mA, Rout=  75ohms, Iq= 5mA.
* (input cm clamp *optional*)
* 
* Connections: + - V+V-O 
.SUBCKT LF356A 3 2 7 4 6 
* INPUT
VCM2 40 4 2.0000E+00
RD1 40 80 1.0610E+03
RD2 40 90 1.0610E+03
J1 80 102 12 JM1 
J2 90 103 12 JM2 
CIN 2 3 4.0000E-12
RG1 2 102 2.0000E+00
RG2 3 103 2.0000E+00
** CM CLAMP 
* DCM1 107 103 DM4 
* DCM2 105 107 DM4 
* VCMC 105 4 4.0E+00
* ECMP 106 4 103 4 1 
* RCMP 107 106 1E+04
* DCM3 109 102 DM4 
* DCM4 105 109 DM4 
* ECMN 108 4 102 4 1 
* RCMN 109 108 1E+04
** END CM CLAMP 
C1 80 90 1.5000E-11
ISS 7 12 4.8000E-04
GOSIT 7 12 90 80 2.4000E-04
* INTERMEDIATE 
GCM 0 8 12 0 9.4248E-09
GA 8 0 80 90 9.4248E-04
R2 8 0 1.0000E+05
C2 1 8 3.0000E-11
GB 1 0 8 0 2.8609E+01
RO2 1 0 7.4000E+01
* OUTPUT 
RSO 1 6 1.0000E+00
ECL 18 0 1 6 2.0690E+01
GCL 0 8 20 0 1.0000E+00
RCL 20 0 1.0000E+03
D1 18 20 DM1 
D2 20 18 DM1 
* 
D3A 131 70 DM3 
D3B 13 131 DM3 
GPL 0 8 70 7 1.0000E+00
VC 13 6 3.1552E+00
RPLA 7 70 1.0000E+04
RPLB 7 131 1.0000E+05
D4A 60 141 DM3 
D4B 141 14 DM3 
GNL 0 8 60 4 1.0000E+00
VE 6 14 3.1552E+00
RNLA 60 4 1.0000E+04
RNLB 141 4 1.0000E+05
* 
IP 7 4 4.5200E-03
DSUB 4 7 DM2 
* MODELS 
.MODEL JM1 PJF (IS=3.1500E-11 BETA=9.2528E-04 VTO=-1.000000E+00)
.MODEL JM2 PJF (IS=2.8500E-11 BETA=9.2528E-04 VTO=-9.990000E-01)
.MODEL DM1 D (IS=1.0000E-15)
.MODEL DM2 D (IS=8.0000E-16 BV=5.2800E+01)
.MODEL DM3 D (IS=1.0000E-16)
.MODEL DM4 D (IS=1.0000E-09)
.ENDS LF356A

*====================================================
* LF412
* Linear Technology LF412 op amp model  
* Written: 05-10-1990 18:34:44 Type: PFET input, internal comp.
* Typical specs: 
* Vos=5.0E-04, Ib=2.0E-11, Ios=1.5E-11, GBP=5.5E+06Hz, Phase mar.= 45 deg, 
* SR(low)=1.3E+01V/us, SR(high)=2.6E+01V/us, Av=108.0dB, CMRR=100.0dB, 
* Vsat(+)=2.0V, Vsat(-)=2.0V, Isc=+/-25mA, Rout= 100ohms, Iq= 2mA.
* (input cm clamp *optional*)
* 
* Connections: + - V+V-O 
.SUBCKT LF412 3 2 7 4 6 
* INPUT
VCM2 40 4 2.0000E+00
RD1 40 80 9.6458E+02
RD2 40 90 9.6458E+02
J1 80 102 12 JM1 
J2 90 103 12 JM2 
CIN 2 3 4.0000E-12
RG1 2 102 2.0000E+00
RG2 3 103 2.0000E+00
** CM CLAMP 
* DCM1 107 103 DM4 
* DCM2 105 107 DM4 
* VCMC 105 4 4.0E+00
* ECMP 106 4 103 4 1 
* RCMP 107 106 1E+04
* DCM3 109 102 DM4 
* DCM4 105 109 DM4 
* ECMN 108 4 102 4 1 
* RCMN 109 108 1E+04
** END CM CLAMP 
C1 80 90 1.5000E-11
ISS 7 12 5.2000E-04
GOSIT 7 12 90 80 2.6000E-04
* INTERMEDIATE 
GCM 0 8 12 0 1.0367E-08
GA 8 0 80 90 1.0367E-03
R2 8 0 1.0000E+05
C2 1 8 3.0000E-11
GB 1 0 8 0 2.4474E+01
RO2 1 0 9.9000E+01
* OUTPUT 
RSO 1 6 1.0000E+00
ECL 18 0 1 6 2.0774E+01
GCL 0 8 20 0 1.0000E+00
RCL 20 0 1.0000E+03
D1 18 20 DM1 
D2 20 18 DM1 
* 
D3A 131 70 DM3 
D3B 13 131 DM3 
GPL 0 8 70 7 1.0000E+00
VC 13 6 3.1575E+00
RPLA 7 70 1.0000E+04
RPLB 7 131 1.0000E+05
D4A 60 141 DM3 
D4B 141 14 DM3 
GNL 0 8 60 4 1.0000E+00
VE 6 14 3.1575E+00
RNLA 60 4 1.0000E+04
RNLB 141 4 1.0000E+05
* 
IP 7 4 1.3800E-03
DSUB 4 7 DM2 
* MODELS 
.MODEL JM1 PJF (IS=2.7500E-11 BETA=1.0335E-03 VTO=-1.000000E+00)
.MODEL JM2 PJF (IS=1.2500E-11 BETA=1.0335E-03 VTO=-9.995000E-01)
.MODEL DM1 D (IS=1.0000E-15)
.MODEL DM2 D (IS=8.0000E-16 BV=4.3200E+01)
.MODEL DM3 D (IS=1.0000E-16)
.MODEL DM4 D (IS=1.0000E-09)
.ENDS LF412

*====================================================
* LF412A
* Linear Technology LF412A op amp model  
* Written: 05-10-1990 18:37:21 Type: PFET input, internal comp.
* Typical specs: 
* Vos=3.0E-04, Ib=1.5E-11, Ios=1.0E-11, GBP=5.7E+06Hz, Phase mar.= 45 deg, 
* SR(low)=1.5E+01V/us, SR(high)=3.0E+01V/us, Av=110.0dB, CMRR=100.0dB, 
* Vsat(+)=2.0V, Vsat(-)=2.0V, Isc=+/-25mA, Rout= 100ohms, Iq= 2mA.
* (input cm clamp *optional*)
* 
* Connections: + - V+V-O 
.SUBCKT LF412A 3 2 7 4 6 
* INPUT
VCM2 40 4 2.0000E+00
RD1 40 80 9.3073E+02
RD2 40 90 9.3073E+02
J1 80 102 12 JM1 
J2 90 103 12 JM2 
CIN 2 3 4.0000E-12
RG1 2 102 2.0000E+00
RG2 3 103 2.0000E+00
** CM CLAMP 
* DCM1 107 103 DM4 
* DCM2 105 107 DM4 
* VCMC 105 4 4.0E+00
* ECMP 106 4 103 4 1 
* RCMP 107 106 1E+04
* DCM3 109 102 DM4 
* DCM4 105 109 DM4 
* ECMN 108 4 102 4 1 
* RCMN 109 108 1E+04
** END CM CLAMP 
C1 80 90 1.5000E-11
ISS 7 12 6.0000E-04
GOSIT 7 12 90 80 3.0000E-04
* INTERMEDIATE 
GCM 0 8 12 0 1.0744E-08
GA 8 0 80 90 1.0744E-03
R2 8 0 1.0000E+05
C2 1 8 3.0000E-11
GB 1 0 8 0 2.9730E+01
RO2 1 0 9.9000E+01
* OUTPUT 
RSO 1 6 1.0000E+00
ECL 18 0 1 6 2.0925E+01
GCL 0 8 20 0 1.0000E+00
RCL 20 0 1.0000E+03
D1 18 20 DM1 
D2 20 18 DM1 
* 
D3A 131 70 DM3 
D3B 13 131 DM3 
GPL 0 8 70 7 1.0000E+00
VC 13 6 3.1615E+00
RPLA 7 70 1.0000E+04
RPLB 7 131 1.0000E+05
D4A 60 141 DM3 
D4B 141 14 DM3 
GNL 0 8 60 4 1.0000E+00
VE 6 14 3.1615E+00
RNLA 60 4 1.0000E+04
RNLB 141 4 1.0000E+05
* 
IP 7 4 1.2000E-03
DSUB 4 7 DM2 
* MODELS 
.MODEL JM1 PJF (IS=2.0000E-11 BETA=9.6199E-04 VTO=-1.000000E+00)
.MODEL JM2 PJF (IS=1.0000E-11 BETA=9.6199E-04 VTO=-9.997000E-01)
.MODEL DM1 D (IS=1.0000E-15)
.MODEL DM2 D (IS=8.0000E-16 BV=5.2800E+01)
.MODEL DM3 D (IS=1.0000E-16)
.MODEL DM4 D (IS=1.0000E-09)
.ENDS LF412A

*====================================================
* LM107
* Linear Technology LM107 op amp model  
* Written: 08-23-1989 15:53:34 Type: Bipolar npn input, internal comp.
* Typical specs: 
* Vos=7.0E-04, Ib=3.0E-08, Ios=1.5E-09, GBP=9.0E+05Hz, Phase mar.= 70 deg, 