*==============================================
*Diode Pinout: 1=A, 2=K
*Copyright (c) 1997 MicroCode Engineering, Inc.
*All Rights Reserved
*==============================================

*DIODE MCE
*Default diode parameter values pkg:DIODE0.4 1,2
.MODEL DIODE~ D()

*1N34 MCE
*60V 85mA Ge Signal Diode pkg:DIODE0.4 1,2
.MODEL 1N34 D(IS=200P RS=84M N=2.19 BV=60 IBV=15U
+ CJO=4.82P VJ=.75 M=.333 TT=144N)


**********
*1N34X MCE 4-1-97
*Ref: Motorola Semiconductor Databook, 1969
*60V 8.5mA Ge Signal Diode pkg:DIODE0.4 1,2
.MODEL 1N34X D (IS=2.35N RS=9.88 N=1 BV=60 IBV=15U
+ CJO=1.68P VJ=0.75 M=0.333 TT=4.32U)
**********
*SRC=D1N34A;D1N34A;Diode;Ge;MOT 60V 0.005A 3us DIODE0.4
.MODEL 1N34A D (IS=1.38N RS=16.8 N=1 BV=60 IBV=30U
+ CJO=1.53P VJ=0.75 M=0.333 TT=4.32U)
**********
*SRC=D1N38;D1N38;Diode;Ge;MOT 100V 0.0075A 3us DIODE0.4
.MODEL 1N38 D (IS=2.07N RS=11.2 N=1 BV=100 IBV=25U
+ CJO=1.63P VJ=0.75 M=0.333 TT=4.32U)
**********
*SRC=D1N38A;D1N38A;Diode;Ge;MOT 100V 0.004A 3us DIODE0.4
.MODEL 1N38A D (IS=1.1N RS=21 N=1 BV=100 IBV=6U
+ CJO=1.49P VJ=0.75 M=0.333 TT=4.32U)
**********
*SRC=D1N39;D1N39;Diode;Ge;MOT 200V 0.005A 3us DIODE0.4
.MODEL 1N39 D (IS=1.38N RS=16.8 N=1 BV=200 IBV=40U
+ CJO=1.53P VJ=0.75 M=0.333 TT=4.32U)
**********
*SRC=D1N44;D1N44;Diode;Ge;MOT 115V 0.003A 3us DIODE0.4
.MODEL 1N44 D (IS=828P RS=28 N=1 BV=115 IBV=410U
+ CJO=1.45P VJ=0.75 M=0.333 TT=4.32U)
**********
*SRC=D1N45;D1N45;Diode;Ge;MOT 75V 0.003A 3us DIODE0.4
.MODEL 1N45 D (IS=828P RS=28 N=1 BV=75 IBV=410U
+ CJO=1.45P VJ=0.75 M=0.333 TT=4.32U)
**********
*SRC=D1N54;D1N54;Diode;Ge;MOT 35V 0.005A 3us DIODE0.4
.MODEL 1N54 D (IS=1.38N RS=16.8 N=1 BV=35 IBV=10U
+ CJO=1.53P VJ=0.75 M=0.333 TT=4.32U)
**********
*SRC=D1N54A;D1N54A;Diode;Ge;MOT 50V 0.005A 3us DIODE0.4
.MODEL 1N54A D (IS=1.38N RS=16.8 N=1 BV=50 IBV=7U
+ CJO=1.53P VJ=0.75 M=0.333 TT=4.32U)
**********
*SRC=D1N55;D1N55;Diode;Ge;MOT 150V 0.003A 3us DIODE0.4
.MODEL 1N55 D (IS=828P RS=28 N=1 BV=150 IBV=300U
+ CJO=1.45P VJ=0.75 M=0.333 TT=4.32U)
**********
*SRC=D1N55A;D1N55A;Diode;Ge;MOT 150V 0.004A 3us DIODE0.4
.MODEL 1N55A D (IS=1.1N RS=21 N=1 BV=150 IBV=500U
+ CJO=1.49P VJ=0.75 M=0.333 TT=4.32U)
**********
*SRC=D1N55B;D1N55B;Diode;Ge;MOT 190V 0.005A 3us DIODE0.4
.MODEL 1N55B D (IS=1.38N RS=16.8 N=1 BV=190 IBV=500U
+ CJO=1.53P VJ=0.75 M=0.333 TT=4.32U)
**********
*SRC=D1N71;D1N71;Diode;Ge;MOT 40V 0.015A 3us DIODE0.4
.MODEL 1N71 D (IS=4.14N RS=5.6 N=1 BV=40 IBV=300U
+ CJO=1.94P VJ=0.75 M=0.333 TT=4.32U)
**********
*SRC=D1N75;D1N75;Diode;Ge;MOT 125V 0.0025A 3us DIODE0.4
.MODEL 1N75 D (IS=690P RS=33.6 N=1 BV=125 IBV=50U
+ CJO=1.43P VJ=0.75 M=0.333 TT=4.32U)
**********
*SRC=D1N84;D1N84;Diode;Ge;MOT 12V 0.06A 3us DIODE0.4
.MODEL 1N84 D (IS=16.6N RS=1.4 N=1 BV=12 IBV=100U
+ CJO=3.79P VJ=0.75 M=0.333 TT=4.32U)
**********
*SRC=D1N91;D1N91;Diode;Ge;MOT 100V 0.15A 3us DIODE0.4
.MODEL 1N91 D (IS=41.4N RS=0.56 N=1 BV=100 IBV=4M
+ CJO=7.49P VJ=0.75 M=0.333 TT=4.32U)
**********
*SRC=D1N92;D1N92;Diode;Ge;MOT 200V 0.1A 3us DIODE0.4
.MODEL 1N92 D (IS=27.6N RS=0.84 N=1 BV=200 IBV=2M
+ CJO=5.44P VJ=0.75 M=0.333 TT=4.32U)
**********
*SRC=D1N93;D1N93;Diode;Ge;MOT 300V 0.075A 3us DIODE0.4
.MODEL 1N93 D (IS=20.7N RS=1.12 N=1 BV=300 IBV=1.3M
+ CJO=4.41P VJ=0.75 M=0.333 TT=4.32U)
**********
*SRC=D1N94;D1N94;Diode;Ge;MOT 380V 0.5A 3us DIODE0.4
.MODEL 1N94 D (IS=138N RS=0.168 N=1 BV=380 IBV=800U
+ CJO=21.9P VJ=0.75 M=0.333 TT=4.32U)
**********
*SRC=D1N96;D1N96;Diode;Ge;MOT 75V 0.02A 3us DIODE0.4
.MODEL 1N96 D (IS=5.52N RS=4.2 N=1 BV=75 IBV=800U
+ CJO=2.15P VJ=0.75 M=0.333 TT=4.32U)
**********
*SRC=D1N96A;D1N96A;Diode;Ge;MOT 60V 0.04A 3us DIODE0.4
.MODEL 1N96A D (IS=11N RS=2.1 N=1 BV=60 IBV=500U
+ CJO=2.97P VJ=0.75 M=0.333 TT=4.32U)
**********
*SRC=D1N98;D1N98;Diode;Ge;MOT 100V 0.02A 3us DIODE0.4
.MODEL 1N98 D (IS=5.52N RS=4.2 N=1 BV=100 IBV=100U
+ CJO=2.15P VJ=0.75 M=0.333 TT=4.32U)
**********
*SRC=D1N98A;D1N98A;Diode;Ge;MOT 250V 0.04A 3us DIODE0.4
.MODEL 1N98A D (IS=11N RS=2.1 N=1 BV=250 IBV=100U
+ CJO=2.97P VJ=0.75 M=0.333 TT=4.32U)
**********
*1N456 MCE 3-31-97
*Ref: National Discrete Products Databook, 1996
*25V 40mA Si LoLeakage Diode pkg:DIODE0.4 1,2
.MODEL 1N456 D (IS=56.8P RS=1.05 N=1.7 BV=25 IBV=55N
+ CJO=13.3P VJ=0.75 M=0.333 TT=4.32U)

*1N456A MCE 3-31-97
*Ref: National Discrete Products Databook, 1996
*25V 100mA Si LoLeakage Diode pkg:DIODE0.4 1,2
.MODEL 1N456A D (IS=142P RS=0.42 N=1.7 BV=25 IBV=138N
+ CJO=5.44P VJ=0.75 M=0.333 TT=4.32U)

*1N457 MCE 3-31-97
*Ref: National Discrete Products Databook, 1996
*60V 20mA Si LoLeakage Diode pkg:DIODE0.4 1,2
.MODEL 1N457 D (IS=28.4P RS=2.1 N=1.7 BV=60 IBV=66N
+ CJO=10.6P VJ=0.75 M=0.333 TT=4.32U)

*1N457A MCE 3-31-97
*Ref: National Discrete Products Databook, 1996
*60V 100mA Si LoLeakage Diode pkg:DIODE0.4 1,2
.MODEL 1N457A D (IS=142P RS=0.42 N=1.7 BV=60 IBV=330N
+ CJO=5.44P VJ=0.75 M=0.333 TT=4.32U)

*1N458 MCE 3-31-97
*Ref: National Discrete Products Databook, 1996
*125V 7mA Si LoLeakage Diode pkg:DIODE0.4 1,2
.MODEL 1N458 D (IS=9.95P RS=6 N=1.7 BV=125 IBV=49N
+ CJO=7.96P VJ=0.75 M=0.333 TT=4.32U)

*1N458A MCE 3-31-97
*Ref: National Discrete Products Databook, 1996
*125V 100mA Si LoLeakage Diode pkg:DIODE0.4 1,2
.MODEL 1N458A D (IS=142P RS=0.42 N=1.7 BV=125 IBV=687N
+ CJO=5.44P VJ=0.75 M=0.333 TT=4.32U)

*1N459 MCE 3-31-97
*Ref: National Discrete Products Databook, 1996
*175V 3mA Si LoLeakage Diode pkg:DIODE0.4 1,2
.MODEL 1N459 D (IS=4.26P RS=14 N=1.7 BV=175 IBV=29N
+ CJO=7.96P VJ=0.75 M=0.333 TT=4.32U)

*1N459A MCE 3-31-97
*Ref: National Discrete Products Databook, 1996
*175V 100mA Si LoLeakage Diode pkg:DIODE0.4 1,2
.MODEL 1N459A D (IS=142P RS=0.42 N=1.7 BV=175 IBV=961N
+ CJO=5.44P VJ=0.75 M=0.333 TT=4.32U)

*1N462A MCE 3-31-97
*Ref: National Discrete Products Databook, 1996
*60V 100mA Si GenPurpose Diode pkg:DIODE0.4 1,2
.MODEL 1N462A D (IS=142P RS=0.42 N=1.7 BV=60 IBV=500N
+ CJO=5.44P VJ=0.75 M=0.333 TT=4.32U)

*1N463A MCE 3-31-97
*Ref: National Discrete Products Databook, 1996
*175V 100mA Si GenPurpose Diode pkg:DIODE0.4 1,2
.MODEL 1N463A D (IS=142P RS=0.42 N=1.7 BV=175 IBV=961N
+ CJO=5.44P VJ=0.75 M=0.333 TT=4.32U)

*1N914 MCE
*100V 80mA Si Switching Diode pkg:DIODE0.4 1,2
.MODEL 1N914 D(IS=7.075E-9 RS=0.78 N=1.95 TT=7.2E-9 CJO=4E-12 VJ=0.657 
+ M=0.4 BV=100 IBV=0.0001 )

*1N914A MCE 3-13-97
*Ref: National Discrete Products Databook, 1996
*75V 20mA Si Computer Diode pkg:DIODE0.4 1,2
.MODEL 1N914A D (IS=28.4P RS=2.1 N=1.7 BV=75 IBV=5U
+ CJO=2.15P VJ=0.75 M=0.333 TT=4.32N)

*1N914B MCE 3-13-97
*Ref: National Discrete Products Databook, 1996
*75V 100mA Si Computer Diode pkg:DIODE0.4 1,2
.MODEL 1N914B D (IS=142P RS=0.42 N=1.7 BV=75 IBV=5U
+ CJO=5.3P VJ=0.75 M=0.333 TT=4.32N)

*1N916 MCE 3-13-97
*Ref: National Discrete Products Databook, 1996
*75V 10mA Si Computer Diode pkg:DIODE0.4 1,2
.MODEL 1N916 D (IS=14.2P RS=4.2 N=1.7 BV=75 IBV=5U
+ CJO=1.74P VJ=0.75 M=0.333 TT=4.32N)

*1N916A MCE 3-13-97
*Ref: National Discrete Products Databook, 1996
*75V 20mA Si Computer Diode pkg:DIODE0.4 1,2
.MODEL 1N916A D (IS=28.4P RS=2.1 N=1.7 BV=75 IBV=5U
+ CJO=2.15P VJ=0.75 M=0.333 TT=4.32N)

*1N916B MCE 3-13-97
*Ref: National Discrete Products Databook, 1996
*75V 30mA Si Computer Diode pkg:DIODE0.4 1,2
.MODEL 1N916B D (IS=42.6P RS=1.4 N=1.7 BV=75 IBV=5U
+ CJO=2.56P VJ=0.75 M=0.333 TT=4.32N)

*1N3064 MCE 3-13-97
*Ref: National Discrete Products Databook, 1996
*50V 10mA Si Computer Diode pkg:DIODE0.4 1,2
.MODEL 1N3064 D (IS=341P RS=4.2 N=1.7 BV=50 IBV=660N
+ CJO=1.74P VJ=0.75 M=0.333 TT=4.32N)

*1N3070 MCE 3-31-97
*Ref: National Discrete Products Databook, 1996
*175V 100mA Si HiVoltage Diode pkg:DIODE0.4 1,2
.MODEL 1N3070 D (IS=142P RS=0.42 N=1.7 BV=175 IBV=961N
+ CJO=6.63P VJ=0.75 M=0.333 TT=72N)

*1N4001 MCE 8-16-95
*50V 1A Si GenPurpose Diode pkg:DIODE0.4 1,2
.MODEL 1N4001 D(IS=2.55E-9 RS=0.042 N=1.75 TT=5.76E-6 CJO=1.85E-11 
+ VJ=0.75 M=0.333 BV=50 IBV=1E-5 )

*1N4002 MCE 8-16-95
*100V 1A Si GenPurpose Diode pkg:DIODE0.4 1,2
.MODEL 1N4002 D(IS=2.55E-9 RS=0.042 N=1.75 TT=5.76E-6 CJO=1.85E-11 
+ VJ=0.75 M=0.333 BV=100 IBV=1E-5 )

*1N4003 MCE 8-16-95
*200V 1A Si GenPurpose Diode pkg:DIODE0.4 1,2
.MODEL 1N4003 D(IS=2.55E-9 RS=0.042 N=1.75 TT=5.76E-6 CJO=1.85E-11 
+ VJ=0.75 M=0.333 BV=200 IBV=1.98E-5 )

*1N4004 MCE 8-16-95
*400V 1A Si GenPurpose Diode pkg:DIODE0.4 1,2
.MODEL 1N4004 D(IS=2.55E-9 RS=0.042 N=1.75 TT=5.76E-6 CJO=1.85E-11 
+ VJ=0.75 M=0.333 BV=400 IBV=3.95E-5 )

*1N4005 MCE 8-16-95
*600V 1A Si GenPurpose Diode pkg:DIODE0.4 1,2
.MODEL 1N4005 D(IS=2.55E-9 RS=0.042 N=1.75 TT=5.76E-6 CJO=1.85E-11 
+ VJ=0.75 M=0.333 BV=600 IBV=5.92E-5 )

*1N4006 MCE 8-16-95
*800V 1A Si GenPurpose Diode pkg:DIODE0.4 1,2
.MODEL 1N4006 D(IS=2.55E-9 RS=0.042 N=1.75 TT=5.76E-6 CJO=1.85E-11 
+ VJ=0.75 M=0.333 BV=800 IBV=7.89E-5 )

*1N4007 MCE 8-16-95
*1000V 1A Si GenPurpose Diode pkg:DIODE0.4 1,2
.MODEL 1N4007 D(IS=2.55E-9 RS=0.042 N=1.75 TT=5.76E-6 CJO=1.85E-11 
+ VJ=0.75 M=0.333 BV=1000 IBV=9.86E-5 )

*1N4148 MCE 3-13-97
*Ref: National Discrete Products Databook, 1996
*75V 10mA Si Computer Diode pkg:DIODE0.4 1,2
.MODEL 1N4148 D (IS=14.2P RS=4.2 N=1.7 BV=75 IBV=5U
+ CJO=1.74P VJ=0.75 M=0.333 TT=4.32N)

*1N4149 MCE 3-13-97
*Ref: National Discrete Products Databook, 1996
*75V 10mA Si Computer Diode pkg:DIODE0.4 1,2
.MODEL 1N4149 D (IS=14.2P RS=4.2 N=1.7 BV=75 IBV=5U
+ CJO=1.74P VJ=0.75 M=0.333 TT=4.32N)

*1N4150 MCE 3-13-97
*Ref: National Discrete Products Databook, 1996
*50V 200mA Si Computer Diode pkg:DIODE0.4 1,2
.MODEL 1N4150 D (IS=284P RS=0.21 N=1.7 BV=50 IBV=550N
+ CJO=3.31P VJ=0.75 M=0.333 TT=4.32N)

*1N4151 MCE 3-13-97
*Ref: National Discrete Products Databook, 1996
*50V 50mA Si Computer Diode pkg:DIODE0.4 1,2
.MODEL 1N4151 D (IS=71P RS=0.84 N=1.7 BV=50 IBV=138N
+ CJO=2.65P VJ=0.75 M=0.333 TT=4.32N)

*1N4152 MCE 3-13-97
*Ref: National Discrete Products Databook, 1996
*30V 20mA Si Computer Diode pkg:DIODE0.4 1,2
.MODEL 1N4152 D (IS=857P RS=2.1 N=1.7 BV=30 IBV=995N
+ CJO=2.65P VJ=0.75 M=0.333 TT=2.88N)

*1N4153 MCE 3-13-97
*Ref: National Discrete Products Databook, 1996
*50V 20mA Si Computer Diode pkg:DIODE0.4 1,2
.MODEL 1N4153 D (IS=857P RS=2.1 N=1.7 BV=50 IBV=1.66U
+ CJO=2.65P VJ=0.75 M=0.333 TT=2.88N)

*1N4154 MCE 3-13-97
*Ref: National Discrete Products Databook, 1996
*25V 30mA Si Computer Diode pkg:DIODE0.4 1,2
.MODEL 1N4154 D (IS=42.6P RS=1.4 N=1.7 BV=25 IBV=100N
+ CJO=5.3P VJ=0.75 M=0.333 TT=5.76N)

*1N4244 MCE 3-13-97
*Ref: National Discrete Products Databook, 1996
*15V 20mA Si Computer Diode pkg:DIODE0.4 1,2
.MODEL 1N4244 D (IS=28.4P RS=2.1 N=1.7 BV=15 IBV=250N
+ CJO=1.06P VJ=0.75 M=0.333 TT=1.08N)

*1N4305 MCE 3-13-97
*Ref: National Discrete Products Databook, 1996
*50V 10mA Si Computer Diode pkg:DIODE0.4 1,2
.MODEL 1N4305 D (IS=1.33N RS=4.2 N=1.7 BV=50 IBV=2.58U
+ CJO=2.65P VJ=0.75 M=0.333 TT=4.32N)

*1N4446 MCE 3-13-97
*Ref: National Discrete Products Databook, 1996
*20V 20mA Si Computer Diode pkg:DIODE0.4 1,2
.MODEL 1N4446 D (IS=28.4P RS=2.1 N=1.7 BV=20 IBV=25N
+ CJO=5.3P VJ=0.75 M=0.333 TT=5.76N)

*1N4447 MCE 3-13-97
*Ref: National Discrete Products Databook, 1996
*20V 20mA Si Computer Diode pkg:DIODE0.4 1,2
.MODEL 1N4447 D (IS=28.4P RS=2.1 N=1.7 BV=20 IBV=25N
+ CJO=5.3P VJ=0.75 M=0.333 TT=5.76N)

*1N4448 MCE 3-13-97
*Ref: National Discrete Products Databook, 1996
*20V 100mA Si Computer Diode pkg:DIODE0.4 1,2
.MODEL 1N4448 D (IS=142P RS=0.42 N=1.7 BV=20 IBV=110N
+ CJO=2.65P VJ=0.75 M=0.333 TT=5.76N)

*1N4454 MCE 3-13-97
*Ref: National Discrete Products Databook, 1996
*50V 10mA Si Computer Diode pkg:DIODE0.4 1,2
.MODEL 1N4454 D (IS=14.2P RS=4.2 N=1.7 BV=50 IBV=100N
+ CJO=2.65P VJ=0.75 M=0.333 TT=5.76N)

*1N4934 MCE
*400V 1A Si Rectifier pkg:DIODE0.4 1,2
.MODEL 1N4934 D(IS=2.54E-10 RS=6.874E-6 N=1.498 TT=1.086E-8 CJO=3.135E-11 
+ VJ=0.5581 M=0.4379 BV=100 IBV=0.0001 )

*1N4938 MCE 3-31-97
*Ref: National Discrete Products Databook, 1996
*175V 100mA Si HiVoltage Diode pkg:DIODE0.4 1,2
.MODEL 1N4938 D (IS=142P RS=0.42 N=1.7 BV=175 IBV=961N
+ CJO=6.63P VJ=0.75 M=0.333 TT=72N)

*1N5282 MCE 3-13-97
*Ref: National Discrete Products Databook, 1996
*55V 500mA Si Computer Diode pkg:DIODE0.4 1,2
.MODEL 1N5282 D (IS=710P RS=84M N=1.7 BV=55 IBV=1.51U
+ CJO=3.31P VJ=0.75 M=0.333 TT=4.32N)

*1N5400 MCE
* 50V 3A Si Rectifier pkg:DO-201 1,2
.MODEL 1N5400 D(IS=2.68E-12 RS=0.00977 N=1.17 TT=1.44E-5 CJO=1.24E-10 
+ VJ=0.6 M=0.333 BV=66.6 IBV=1E-5 )

*1N5401 MCE
*100V 3A Si Rectifier pkg:DO-201 1,2
.MODEL 1N5401 D(IS=2.68E-12 RS=0.00731 N=1.17 TT=1.44E-5 CJO=1.24E-10 
+ VJ=0.6 M=0.333 BV=133.2 IBV=1E-5 )

*1N5402 MCE
*200V 3A Si Rectifier pkg:DO-201 1,2
.MODEL 1N5402 D(IS=2.68E-12 RS=0.00731 N=1.17 TT=1.44E-5 CJO=1.24E-10 
+ VJ=0.6 M=0.333 BV=266 IBV=1E-5 )

*1N5404 MCE
*400V 3A Si Rectifier pkg:DO-201 1,2
.MODEL 1N5404 D(IS=2.68E-12 RS=0.00731 N=1.17 TT=1.44E-5 CJO=1.24E-10 
+ VJ=0.6 M=0.333 BV=533 IBV=1E-5 )

*1N5406 MCE
*600V 3A Si Rectifier pkg:DO-201 1,2
.MODEL 1N5406 D(IS=2.68E-12 RS=0.00731 N=1.17 TT=1.44E-5 CJO=1.24E-10 
+ VJ=0.6 M=0.333 BV=900 IBV=1E-5 )

*BAS116 MCE 2-27-96
* 75V 200mA Si Switching Diode pkg:SOT-23 3,1
.MODEL BAS116 D (IS=473P RS=42M N=1.75 BV=75 IBV=1.38U
+ CJO=9.55P VJ=.75 M=.333 TT=4.32U)

*FD700 MCE 3-31-97
*Ref: National Discrete Products Databook, 1996
*20V 50mA Si Computer Diode pkg:DIODE0.4 1,2
.MODEL FD700 D (IS=71P RS=0.84 N=1.7 BV=20 IBV=55N
+ CJO=1.33P VJ=0.75 M=0.333 TT=1.01N)

*FD777 MCE 3-31-97
*Ref: National Discrete Products Databook, 1996
*8V 50mA Si Computer Diode pkg:DIODE0.4 1,2
.MODEL FD777 D (IS=71P RS=0.84 N=1.7 BV=8 IBV=100N
+ CJO=1.72P VJ=0.75 M=0.333 TT=1.08N)

*FDH300 MCE 3-31-97
*Ref: National Discrete Products Databook, 1996
*125V 200mA Si LoLeakage Diode pkg:DIODE0.4 1,2
.MODEL FDH300 D (IS=284P RS=0.21 N=1.7 BV=125 IBV=1.38U
+ CJO=7.96P VJ=0.75 M=0.333 TT=4.32U)

*FDH300A MCE 3-31-97
*Ref: National Discrete Products Databook, 1996
*125V 200mA Si LoLeakage Diode pkg:DIODE0.4 1,2
.MODEL FDH300A D (IS=284P RS=0.21 N=1.7 BV=125 IBV=1.38U
+ CJO=7.96P VJ=0.75 M=0.333 TT=4.32U)

*FDH333 MCE 3-31-97
*Ref: National Discrete Products Databook, 1996
*125V 300mA Si LoLeakage Diode pkg:DIODE0.4 1,2
.MODEL FDH333 D (IS=426P RS=0.14 N=1.7 BV=125 IBV=2.06U
+ CJO=7.96P VJ=0.75 M=0.333 TT=4.32U)

*FDH400 MCE 3-31-97
*Ref: National Discrete Products Databook, 1996
*150V 300mA Si HiVoltage Diode pkg:DIODE0.4 1,2
.MODEL FDH400 D (IS=426P RS=0.14 N=1.7 BV=150 IBV=2.48U
+ CJO=2.65P VJ=0.75 M=0.333 TT=72N)

*FDH444 MCE 3-31-97
*Ref: National Discrete Products Databook, 1996
*100V 300mA Si HiVoltage Diode pkg:DIODE0.4 1,2
.MODEL FDH444 D (IS=426P RS=0.14 N=1.7 BV=100 IBV=1.65U
+ CJO=3.31P VJ=0.75 M=0.333 TT=86.4N)

*FDH600 MCE 3-31-97
*Ref: National Discrete Products Databook, 1996
*50V 200mA Si Computer Diode pkg:DIODE0.4 1,2
.MODEL FDH600 D (IS=284P RS=0.21 N=1.7 BV=50 IBV=550N
+ CJO=3.31P VJ=0.75 M=0.333 TT=7.2N)

*FDH3595 MCE 3-31-97
*Ref: National Discrete Products Databook, 1996
*125V 200mA Si LoLeakage Diode pkg:DIODE0.4 1,2
.MODEL FDH3595 D (IS=284P RS=0.21 N=1.7 BV=125 IBV=1.38U
+ CJO=10.6P VJ=0.75 M=0.333 TT=4.32U)

*FJT1100 MCE 3-31-97
*Ref: National Discrete Products Databook, 1996
*15V 50mA Si LoLeakage Diode pkg:DIODE0.4 1,2
.MODEL FJT1100 D (IS=71P RS=0.84 N=1.7 BV=15 IBV=41.2N
+ CJO=1.99P VJ=0.75 M=0.333 TT=4.32U)

*FJT1101 MCE 3-31-97
*Ref: National Discrete Products Databook, 1996
*15V 50mA Si LoLeakage Diode pkg:DIODE0.4 1,2
.MODEL FJT1101 D (IS=71P RS=0.84 N=1.7 BV=15 IBV=41.2N
+ CJO=2.39P VJ=0.75 M=0.333 TT=4.32U)

*FJT1102 MCE 3-31-97
*Ref: National Discrete Products Databook, 1996
*15V 50mA Si LoLeakage Diode pkg:DIODE0.4 1,2
.MODEL FJT1102 D (IS=71P RS=0.84 N=1.7 BV=15 IBV=41.2N
+ CJO=4.64P VJ=0.75 M=0.333 TT=4.32U)

*MAD1108 MCE 2-27-96
*Ref: Motorola Small-Signal devices databook, 1994
* 50V 400mA 8-Diode Array pkg:DIP16 (A:16,1)(B:15,2)(C:14,3)(D:13,4)(E:12,5)(F:11,6)(G:10,7)(H:9,8)
.MODEL MAD1108 D (IS=210N RS=.201 N=2.51 BV=50 IBV=406U
+ CJO=17.7P VJ=.75 M=.333 TT=11.5N)

*MAD1109 MCE 2-27-96
*Ref: Motorola Small-Signal devices databook, 1994
* 50V 400mA 7-Diode Array pkg:DIP14 (A:14,1)(B:13,2)(C:12,3)(D:11,4)(E:10,5)(F:9,6)(G:8,7)
.MODEL MAD1109 D (IS=210N RS=.201 N=2.51 BV=50 IBV=406U
+ CJO=17.7P VJ=.75 M=.333 TT=11.5N)

*MMAD1108 MCE 2-27-96
*Ref: Motorola Small-Signal devices databook, 1994
* 50V 400mA 8-Diode Array pkg:SMD16A (A:16,1)(B:15,2)(C:14,3)(D:13,4)(E:12,5)(F:11,6)(G:10,7)(H:9,8)
.MODEL MMAD1108 D (IS=210N RS=.201 N=2.51 BV=50 IBV=406U
+ CJO=17.7P VJ=.75 M=.333 TT=11.5N)

*MMAD1109 MCE 2-27-96
*Ref: Motorola Small-Signal devices databook, 1994
* 50V 400mA 7-Diode Array pkg:DIP14 (A:14,1)(B:13,2)(C:12,3)(D:11,4)(E:10,5)(F:9,6)(G:8,7)
.MODEL MMAD1109 D (IS=210N RS=.201 N=2.51 BV=50 IBV=406U
+ CJO=17.7P VJ=.75 M=.333 TT=11.5N)

*MMBD6050 MCE 2-27-96
*Ref: Motorola Small-Signal devices databook, 1994
* 70V 200mA Si Switching Diode pkg:SOT-23 3,1
.MODEL MMBD6050 D (IS=24.2N RS=42M N=2.18 BV=70 IBV=66U
+ CJO=760F VJ=.75 M=.333 TT=5.76N)

*MMBD914 MCE
*Ref: Motorola Small-Signal devices databook, 1994
*100V 200mA Si Diode pkg:SOT-23 3,1
.MODEL MMBD914 D(IS=3.45E-8 RS=0.042 N=2.18 TT=5.76E-9 CJO=7.62E-13 
+ VJ=0.75 M=0.333 BV=100 IBV=0.0001334 )
**********
*SM4001TR MCE 8/5/97
*Ref: International Rectifier Digest '94
*50V 1000mA 3us Si Diode pkg:SMB 1,2
.MODEL SM4001TR D (IS=1.42N RS=42M N=1.7 BV=50 IBV=10U
+ CJO=42.4P VJ=0.75 M=0.333 TT=4.32U)
**********
*SM4002TR MCE 8/5/97
*Ref: International Rectifier Digest '94
*100V 1000mA 3us Si Diode pkg:SMB 1,2
.MODEL SM4002TR D (IS=1.42N RS=42M N=1.7 BV=100 IBV=10U
+ CJO=42.4P VJ=0.75 M=0.333 TT=4.32U)
**********
*SM4003TR MCE 8/5/97
*Ref: International Rectifier Digest '94
*200V 1000mA 3us Si Diode pkg:SMB 1,2
.MODEL SM4003TR D (IS=1.42N RS=42M N=1.7 BV=200 IBV=11U
+ CJO=42.4P VJ=0.75 M=0.333 TT=4.32U)
**********
*SM4004TR MCE 8/5/97
*Ref: International Rectifier Digest '94
*400V 1000mA 3us Si Diode pkg:SMB 1,2
.MODEL SM4004TR D (IS=1.42N RS=42M N=1.7 BV=400 IBV=22U
+ CJO=42.4P VJ=0.75 M=0.333 TT=4.32U)
**********
*SM4005TR MCE 8/5/97
*Ref: International Rectifier Digest '94
*600V 1000mA 3us Si Diode pkg:SMB 1,2
.MODEL SM4005TR D (IS=1.42N RS=42M N=1.7 BV=600 IBV=33U
+ CJO=42.4P VJ=0.75 M=0.333 TT=4.32U)
**********
*SM4006TR MCE 8/5/97
*Ref: International Rectifier Digest '94
*800V 1000mA 3us Si Diode pkg:SMB 1,2
.MODEL SM4006TR D (IS=1.42N RS=42M N=1.7 BV=800 IBV=44U
+ CJO=42.4P VJ=0.75 M=0.333 TT=4.32U)
**********
*SM4007TR MCE 8/5/97
*Ref: International Rectifier Digest '94
*1000V 1000mA 3us Si Diode pkg:SMB 1,2
.MODEL SM4007TR D (IS=1.42N RS=42M N=1.7 BV=1E+03 IBV=55U
+ CJO=42.4P VJ=0.75 M=0.333 TT=4.32U)
**********
*1N5407 MCE 8/5/97
*Ref: International Rectifier Digest '94
*800V 3000mA 3us Si Diode pkg:DIODE0.4 1,2
.MODEL 1N5407 D (IS=4.26N RS=14M N=1.7 BV=800 IBV=132U
+ CJO=125P VJ=0.75 M=0.333 TT=4.32U)
**********
*1N5408 MCE 8/5/97
*Ref: International Rectifier Digest '94
*1000V 3000mA 3us Si Diode pkg:DIODE0.4 1,2
.MODEL 1N5408 D (IS=4.26N RS=14M N=1.7 BV=1E+03 IBV=165U
+ CJO=125P VJ=0.75 M=0.333 TT=4.32U)
**********
*21PT5 MCE 8/5/97
*Ref: International Rectifier Digest '94
*50V 20000mA 3us Si Diode pkg:DIODE0.7 1,2
.MODEL 21PT5 D (IS=28.4N RS=2.1M N=1.7 BV=50 IBV=55U
+ CJO=823P VJ=0.75 M=0.333 TT=4.32U)
**********
*21PT10 MCE 8/5/97
*Ref: International Rectifier Digest '94
*100V 20000mA 3us Si Diode pkg:DIODE0.7 1,2
.MODEL 21PT10 D (IS=28.4N RS=2.1M N=1.7 BV=100 IBV=110U
+ CJO=823P VJ=0.75 M=0.333 TT=4.32U)
**********
*21PT20 MCE 8/5/97
*Ref: International Rectifier Digest '94
*200V 20000mA 3us Si Diode pkg:DIODE0.7 1,2
.MODEL 21PT20 D (IS=28.4N RS=2.1M N=1.7 BV=200 IBV=220U
+ CJO=823P VJ=0.75 M=0.333 TT=4.32U)
**********
*21PT40 MCE 8/5/97
*Ref: International Rectifier Digest '94
*400V 20000mA 3us Si Diode pkg:DIODE0.7 1,2
.MODEL 21PT40 D (IS=28.4N RS=2.1M N=1.7 BV=400 IBV=440U
+ CJO=823P VJ=0.75 M=0.333 TT=4.32U)
**********
*21PT60 MCE 8/5/97
*Ref: International Rectifier Digest '94
*600V 20000mA 3us Si Diode pkg:DIODE0.7 1,2
.MODEL 21PT60 D (IS=28.4N RS=2.1M N=1.7 BV=600 IBV=659U
+ CJO=823P VJ=0.75 M=0.333 TT=4.32U)
**********
*8AF05NPP MCE 8/5/97
*Ref: International Rectifier Digest '94
*50V 50000mA 3us Si Diode pkg:DIODE0.7 1,2
.MODEL 8AF05NPP D (IS=71N RS=840U N=1.7 BV=50 IBV=138U
+ CJO=2.06N VJ=0.75 M=0.333 TT=4.32U)
**********
*8AF1NPP MCE 8/5/97
*Ref: International Rectifier Digest '94
*100V 50000mA 3us Si Diode pkg:DIODE0.7 1,2
.MODEL 8AF1NPP D (IS=71N RS=840U N=1.7 BV=100 IBV=275U
+ CJO=2.06N VJ=0.75 M=0.333 TT=4.32U)
**********
*8AF2NPP MCE 8/5/97
*Ref: International Rectifier Digest '94
*200V 50000mA 3us Si Diode pkg:DIODE0.7 1,2
.MODEL 8AF2NPP D (IS=71N RS=840U N=1.7 BV=200 IBV=550U
+ CJO=2.06N VJ=0.75 M=0.333 TT=4.32U)
**********
*8AF4NPP MCE 8/5/97
*Ref: International Rectifier Digest '94
*400V 50000mA 3us Si Diode pkg:DIODE0.7 1,2
.MODEL 8AF4NPP D (IS=71N RS=840U N=1.7 BV=400 IBV=1099U
+ CJO=2.06N VJ=0.75 M=0.333 TT=4.32U)
**********
*6F10 MCE 8/5/97
*Ref: International Rectifier Digest '94
*100V 6000mA 3us Si Diode pkg:DIODE0.7 1,2
.MODEL 6F10 D (IS=8.53N RS=7M N=1.7 BV=100 IBV=33U
+ CJO=248P VJ=0.75 M=0.333 TT=4.32U)
**********
*6F20 MCE 8/5/97
*Ref: International Rectifier Digest '94
*200V 6000mA 3us Si Diode pkg:DIODE0.7 1,2
.MODEL 6F20 D (IS=8.53N RS=7M N=1.7 BV=200 IBV=66U
+ CJO=248P VJ=0.75 M=0.333 TT=4.32U)
**********
*6F40 MCE 8/5/97
*Ref: International Rectifier Digest '94
*400V 6000mA 3us Si Diode pkg:DIODE0.7 1,2
.MODEL 6F40 D (IS=8.53N RS=7M N=1.7 BV=400 IBV=132U
+ CJO=248P VJ=0.75 M=0.333 TT=4.32U)
**********
*6F60 MCE 8/5/97
*Ref: International Rectifier Digest '94
*600V 6000mA 3us Si Diode pkg:DIODE0.7 1,2
.MODEL 6F60 D (IS=8.53N RS=7M N=1.7 BV=600 IBV=198U
+ CJO=248P VJ=0.75 M=0.333 TT=4.32U)
**********
*6F80 MCE 8/5/97
*Ref: International Rectifier Digest '94
*800V 6000mA 3us Si Diode pkg:DIODE0.7 1,2
.MODEL 6F80 D (IS=8.53N RS=7M N=1.7 BV=800 IBV=264U
+ CJO=248P VJ=0.75 M=0.333 TT=4.32U)
**********
*6F100 MCE 8/5/97
*Ref: International Rectifier Digest '94
*1000V 6000mA 3us Si Diode pkg:DIODE0.7 1,2
.MODEL 6F100 D (IS=8.53N RS=7M N=1.7 BV=1E+03 IBV=330U
+ CJO=248P VJ=0.75 M=0.333 TT=4.32U)
**********
*6F120 MCE 8/5/97
*Ref: International Rectifier Digest '94
*1200V 6000mA 3us Si Diode pkg:DIODE0.7 1,2
.MODEL 6F120 D (IS=8.53N RS=7M N=1.7 BV=1.2K IBV=396U
+ CJO=248P VJ=0.75 M=0.333 TT=4.32U)
**********
*12F10 MCE 8/5/97
*Ref: International Rectifier Digest '94
*100V 12000mA 3us Si Diode pkg:DIODE0.7 1,2
.MODEL 12F10 D (IS=17.1N RS=3.5M N=1.7 BV=100 IBV=67U
+ CJO=495P VJ=0.75 M=0.333 TT=4.32U)
**********
*12F20 MCE 8/5/97
*Ref: International Rectifier Digest '94
*200V 12000mA 3us Si Diode pkg:DIODE0.7 1,2
.MODEL 12F20 D (IS=17.1N RS=3.5M N=1.7 BV=200 IBV=133U
+ CJO=495P VJ=0.75 M=0.333 TT=4.32U)
**********
*12F40 MCE 8/5/97
*Ref: International Rectifier Digest '94
*400V 12000mA 3us Si Diode pkg:DIODE0.7 1,2
.MODEL 12F40 D (IS=17.1N RS=3.5M N=1.7 BV=400 IBV=265U
+ CJO=495P VJ=0.75 M=0.333 TT=4.32U)
**********
*12F60 MCE 8/5/97
*Ref: International Rectifier Digest '94
*600V 12000mA 3us Si Diode pkg:DIODE0.7 1,2
.MODEL 12F60 D (IS=17.1N RS=3.5M N=1.7 BV=600 IBV=397U
+ CJO=495P VJ=0.75 M=0.333 TT=4.32U)
**********
*12F80 MCE 8/5/97
*Ref: International Rectifier Digest '94
*800V 12000mA 3us Si Diode pkg:DIODE0.7 1,2
.MODEL 12F80 D (IS=17.1N RS=3.5M N=1.7 BV=800 IBV=529U
+ CJO=495P VJ=0.75 M=0.333 TT=4.32U)
**********
*12F100 MCE 8/5/97
*Ref: International Rectifier Digest '94
*1000V 12000mA 3us Si Diode pkg:DIODE0.7 1,2
.MODEL 12F100 D (IS=17.1N RS=3.5M N=1.7 BV=1E+03 IBV=662U
+ CJO=495P VJ=0.75 M=0.333 TT=4.32U)
**********
*12F120 MCE 8/5/97
*Ref: International Rectifier Digest '94
*1200V 12000mA 3us Si Diode pkg:DIODE0.7 1,2
.MODEL 12F120 D (IS=17.1N RS=3.5M N=1.7 BV=1.2K IBV=794U
+ CJO=495P VJ=0.75 M=0.333 TT=4.32U)
**********
*1N1199A MCE 8/5/97
*Ref: International Rectifier Digest '94
*50V 12000mA 3us Si Diode pkg:DIODE0.7 1,2
.MODEL 1N1199A D (IS=17.1N RS=3.5M N=1.7 BV=50 IBV=34U
+ CJO=495P VJ=0.75 M=0.333 TT=4.32U)
**********
*1N1200A MCE 8/5/97
*Ref: International Rectifier Digest '94
*100V 12000mA 3us Si Diode pkg:DIODE0.7 1,2
.MODEL 1N1200A D (IS=17.1N RS=3.5M N=1.7 BV=100 IBV=67U
+ CJO=495P VJ=0.75 M=0.333 TT=4.32U)
**********
*1N1201A MCE 8/5/97
*Ref: International Rectifier Digest '94
*150V 12000mA 3us Si Diode pkg:DIODE0.7 1,2
.MODEL 1N1201A D (IS=17.1N RS=3.5M N=1.7 BV=150 IBV=100U
+ CJO=495P VJ=0.75 M=0.333 TT=4.32U)
**********
*1N1202A MCE 8/5/97
*Ref: International Rectifier Digest '94
*200V 12000mA 3us Si Diode pkg:DIODE0.7 1,2
.MODEL 1N1202A D (IS=17.1N RS=3.5M N=1.7 BV=200 IBV=133U
+ CJO=495P VJ=0.75 M=0.333 TT=4.32U)
**********
*1N1203A MCE 8/5/97
*Ref: International Rectifier Digest '94
*300V 12000mA 3us Si Diode pkg:DIODE0.7 1,2
.MODEL 1N1203A D (IS=17.1N RS=3.5M N=1.7 BV=300 IBV=199U
+ CJO=495P VJ=0.75 M=0.333 TT=4.32U)
**********
*1N1204A MCE 8/5/97
*Ref: International Rectifier Digest '94
*400V 12000mA 3us Si Diode pkg:DIODE0.7 1,2
.MODEL 1N1204A D (IS=17.1N RS=3.5M N=1.7 BV=400 IBV=265U
+ CJO=495P VJ=0.75 M=0.333 TT=4.32U)
**********
*1N1205A MCE 8/5/97
*Ref: International Rectifier Digest '94
*500V 12000mA 3us Si Diode pkg:DIODE0.7 1,2
.MODEL 1N1205A D (IS=17.1N RS=3.5M N=1.7 BV=500 IBV=331U
+ CJO=495P VJ=0.75 M=0.333 TT=4.32U)
**********
*1N1206A MCE 8/5/97
*Ref: International Rectifier Digest '94
*600V 12000mA 3us Si Diode pkg:DIODE0.7 1,2
.MODEL 1N1206A D (IS=17.1N RS=3.5M N=1.7 BV=600 IBV=397U
+ CJO=495P VJ=0.75 M=0.333 TT=4.32U)
**********
*1N3670A MCE 8/5/97
*Ref: International Rectifier Digest '94
*700V 12000mA 3us Si Diode pkg:DIODE0.7 1,2
.MODEL 1N3670A D (IS=17.1N RS=3.5M N=1.7 BV=700 IBV=463U
+ CJO=495P VJ=0.75 M=0.333 TT=4.32U)
**********
*1N3671A MCE 8/5/97
*Ref: International Rectifier Digest '94
*800V 12000mA 3us Si Diode pkg:DIODE0.7 1,2
.MODEL 1N3671A D (IS=17.1N RS=3.5M N=1.7 BV=800 IBV=529U
+ CJO=495P VJ=0.75 M=0.333 TT=4.32U)
**********
*1N3672A MCE 8/5/97
*Ref: International Rectifier Digest '94
*900V 12000mA 3us Si Diode pkg:DIODE0.7 1,2
.MODEL 1N3672A D (IS=17.1N RS=3.5M N=1.7 BV=900 IBV=596U
+ CJO=495P VJ=0.75 M=0.333 TT=4.32U)
**********
*1N3673A MCE 8/5/97
*Ref: International Rectifier Digest '94
*1000V 12000mA 3us Si Diode pkg:DIODE0.7 1,2
.MODEL 1N3673A D (IS=17.1N RS=3.5M N=1.7 BV=1E+03 IBV=662U
+ CJO=495P VJ=0.75 M=0.333 TT=4.32U)
**********
*12F10B MCE 8/5/97
*Ref: International Rectifier Digest '94
*100V 12000mA 3us Si Diode pkg:DIODE0.7 1,2
.MODEL 12F10B D (IS=17.1N RS=3.5M N=1.7 BV=100 IBV=67U
+ CJO=495P VJ=0.75 M=0.333 TT=4.32U)
**********
*12F20B MCE 8/5/97
*Ref: International Rectifier Digest '94
*200V 12000mA 3us Si Diode pkg:DIODE0.7 1,2
.MODEL 12F20B D (IS=17.1N RS=3.5M N=1.7 BV=200 IBV=133U
+ CJO=495P VJ=0.75 M=0.333 TT=4.32U)
**********
*12F40B MCE 8/5/97
*Ref: International Rectifier Digest '94
*400V 12000mA 3us Si Diode pkg:DIODE0.7 1,2
.MODEL 12F40B D (IS=17.1N RS=3.5M N=1.7 BV=400 IBV=265U
+ CJO=495P VJ=0.75 M=0.333 TT=4.32U)
**********
*12F60B MCE 8/5/97
*Ref: International Rectifier Digest '94
*600V 12000mA 3us Si Diode pkg:DIODE0.7 1,2
.MODEL 12F60B D (IS=17.1N RS=3.5M N=1.7 BV=600 IBV=397U
+ CJO=495P VJ=0.75 M=0.333 TT=4.32U)
**********
*12F80B MCE 8/5/97
*Ref: International Rectifier Digest '94
*800V 12000mA 3us Si Diode pkg:DIODE0.7 1,2
.MODEL 12F80B D (IS=17.1N RS=3.5M N=1.7 BV=800 IBV=529U
+ CJO=495P VJ=0.75 M=0.333 TT=4.32U)
**********
*12F100B MCE 8/5/97
*Ref: International Rectifier Digest '94
*1000V 12000mA 3us Si Diode pkg:DIODE0.7 1,2
.MODEL 12F100B D (IS=17.1N RS=3.5M N=1.7 BV=1E+03 IBV=662U
+ CJO=495P VJ=0.75 M=0.333 TT=4.32U)
**********
*12F120B MCE 8/5/97
*Ref: International Rectifier Digest '94
*1200V 12000mA 3us Si Diode pkg:DIODE0.7 1,2
.MODEL 12F120B D (IS=17.1N RS=3.5M N=1.7 BV=1.2K IBV=794U
+ CJO=495P VJ=0.75 M=0.333 TT=4.32U)
**********
*16F10 MCE 8/5/97
*Ref: International Rectifier Digest '94
*100V 16000mA 3us Si Diode pkg:DIODE0.7 1,2
.MODEL 16F10 D (IS=22.7N RS=2.62M N=1.7 BV=100 IBV=88U
+ CJO=659P VJ=0.75 M=0.333 TT=4.32U)
**********
*16F20 MCE 8/5/97
*Ref: International Rectifier Digest '94
*200V 16000mA 3us Si Diode pkg:DIODE0.7 1,2
.MODEL 16F20 D (IS=22.7N RS=2.62M N=1.7 BV=200 IBV=176U
+ CJO=659P VJ=0.75 M=0.333 TT=4.32U)
**********
*16F40 MCE 8/5/97
*Ref: International Rectifier Digest '94
*400V 16000mA 3us Si Diode pkg:DIODE0.7 1,2
.MODEL 16F40 D (IS=22.7N RS=2.62M N=1.7 BV=400 IBV=352U
+ CJO=659P VJ=0.75 M=0.333 TT=4.32U)
**********
*16F60 MCE 8/5/97
*Ref: International Rectifier Digest '94
*600V 16000mA 3us Si Diode pkg:DIODE0.7 1,2
.MODEL 16F60 D (IS=22.7N RS=2.62M N=1.7 BV=600 IBV=527U
+ CJO=659P VJ=0.75 M=0.333 TT=4.32U)
**********
*16F80 MCE 8/5/97
*Ref: International Rectifier Digest '94
*800V 16000mA 3us Si Diode pkg:DIODE0.7 1,2
.MODEL 16F80 D (IS=22.7N RS=2.62M N=1.7 BV=800 IBV=703U
+ CJO=659P VJ=0.75 M=0.333 TT=4.32U)
**********
*16F100 MCE 8/5/97
*Ref: International Rectifier Digest '94
*1000V 16000mA 3us Si Diode pkg:DIODE0.7 1,2
.MODEL 16F100 D (IS=22.7N RS=2.62M N=1.7 BV=1E+03 IBV=878U
+ CJO=659P VJ=0.75 M=0.333 TT=4.32U)
**********
*16F120 MCE 8/5/97
*Ref: International Rectifier Digest '94
*1200V 16000mA 3us Si Diode pkg:DIODE0.7 1,2
.MODEL 16F120 D (IS=22.7N RS=2.62M N=1.7 BV=1.2K IBV=1054U
+ CJO=659P VJ=0.75 M=0.333 TT=4.32U)
**********
*25F10 MCE 8/5/97
*Ref: International Rectifier Digest '94