*==============================================
*N-EMOS 3T, P-EMOS 3T pinout: D,G,S
*Copyright (c) 1997 MicroCode Engineering, Inc.
*All Rights Reserved
*==============================================

*NMOS
*Default N-Channel MOSFET
.MODEL NMOS~ NMOS()

*PMOS
*Default P-Channel MOSFET
.MODEL PMOS~ PMOS()

*2N3796  MCE  7/6/95
*Assumes default L=100U W=100U
*25V  20mA 150 ohm
.MODEL 2N3796 NMOS (LEVEL=1 VTO=3 KP=960U GAMMA=3.72
+ PHI=.75 LAMBDA=4M RD=21 RS=21 IS=10F PB=.8 MJ=.46
+ CBD=13.2P CBS=15.9P CGSO=6N CGDO=5N CGBO=39N)

*2N3797  MCE  7/6/95
*Assumes default L=100U W=100U
*25V  20mA 150 ohm
.MODEL 2N3797 NMOS (LEVEL=1 VTO=3 KP=1.8M GAMMA=3.72
+ PHI=.75 LAMBDA=7.5M RD=21 RS=21 IS=10F PB=.8 MJ=.46
+ CBD=13.2P CBS=15.9P CGSO=6N CGDO=5N CGBO=39N)

*2N4351  MCE  7/6/95
*Assumes default L=100U W=100U
*25V  30mA 100 ohm
.MODEL 2N4351 NMOS (LEVEL=1 VTO=2.1 KP=1.12M GAMMA=2.6
+ PHI=.75 LAMBDA=2.49M RD=14 RS=14 IS=15F PB=.8 MJ=.46
+ CBD=7.95P CBS=9.54P CGSO=11.7N CGDO=9.75N CGBO=16N)

*IRF510 MCE 4-2-96
*100V  5.6A .54 ohm HEXFET pkg:TO-220 2,1,3
.SUBCKT IRF510   10 20 40 40
M1   1  2  3  3  DMOS L=1U W=1U
RD  10  1  .255
RS  30  3  14.5M
RG  20  2  26.7
CGS  2  3  165P
EGD 12  0  2  1  1
VFB 14  0  0
FFB  2  1  VFB  1
CGD 13 14  192P
R1  13  0  1
D1  12 13  DLIM
DDG 15 14  DCGD
R2  12 15  1
D2  15  0  DLIM
DSD  3 10  DSUB
LS  30 40  7.5N
.MODEL DMOS NMOS (LEVEL=3 THETA=60M VMAX=208K ETA=2M VTO=3 KP=.561)
.MODEL DCGD D (CJO=192P VJ=.6 M=.68)
.MODEL DSUB D (IS=23.2N N=1.5 RS=.312 BV=100 CJO=284P VJ=.8 M=.42 TT=100N)
.MODEL DLIM D (IS=100U)
.ENDS IRF510

*IRF520 MCE 4-2-96
*100V  9.2A .27 ohm HEXFET pkg:TO-220 2,1,3
.SUBCKT IRF520   10 20 40 40
M1   1  2  3  3  DMOS L=1U W=1U
RD  10  1  .127
RS  30  3  7.75M
RG  20  2  19.6
CGS  2  3  326P
EGD 12  0  2  1  1
VFB 14  0  0
FFB  2  1  VFB  1
CGD 13 14  436P
R1  13  0  1
D1  12 13  DLIM
DDG 15 14  DCGD
R2  12 15  1
D2  15  0  DLIM
DSD  3 10  DSUB
LS  30 40  7.5N
.MODEL DMOS NMOS (LEVEL=3 THETA=60M VMAX=208K ETA=2M VTO=3 KP=1.49)
.MODEL DCGD D (CJO=436P VJ=.6 M=.68)
.MODEL DSUB D (IS=38.2N N=1.5 RS=.114 BV=100 CJO=499P VJ=.8 M=.42 TT=110N)
.MODEL DLIM D (IS=100U)
.ENDS IRF520

*IRF530 MCE 2-20-96
*100V  14A .16 ohm HEXFET pkg:TO-220 2,1,3
.SUBCKT IRF530  10 20 40 40
M1   1  2  3  3  DMOS L=1U W=1U
RD  10  1  39.7M
RS  30  3  3.14M
RG  20  2  13
CGS  2  3  610P
EGD 12  0  2  1  1
VFB 14  0  0
FFB  2  1  VFB  1
CGD 13 14  770P
R1  13  0  1
D1  12 13  DLIM
DDG 15 14  DCGD
R2  12 15  1
D2  15  0  DLIM
DSD  3 10  DSUB
LS  30 40  7.5N
.MODEL DMOS NMOS (LEVEL=3 THETA=60M VMAX=208K ETA=2M VTO=3 KP=4.5)
.MODEL DCGD D (CJO=770P VJ=.6 M=.68)
.MODEL DSUB D (IS=58.1N N=1.5 RS=28.5M BV=100 CJO=817P VJ=.8 M=.42 TT=150N)
.MODEL DLIM D (IS=100U)
.ENDS IRF530

*IRF540 MCE 4-2-96
*100V  28A .077 ohm HEXFET pkg:TO-220 2,1,3
.SUBCKT IRF540   10 20 40 40
M1   1  2  3  3  DMOS L=1U W=1U
RD  10  1  35.5M
RS  30  3  2.92M
RG  20  2  10.8
CGS  2  3  1.58N
EGD 12  0  2  1  1
VFB 14  0  0
FFB  2  1  VFB  1
CGD 13 14  1.54N
R1  13  0  1
D1  12 13  DLIM
DDG 15 14  DCGD
R2  12 15  1
D2  15  0  DLIM
DSD  3 10  DSUB
LS  30 40  7.5N
.MODEL DMOS NMOS (LEVEL=3 THETA=60M VMAX=208K ETA=2M VTO=3 KP=5.03)
.MODEL DCGD D (CJO=1.54N VJ=.6 M=.68)
.MODEL DSUB D (IS=116N N=1.5 RS=62.5M BV=100 CJO=1.89N VJ=.8 M=.42 TT=180N)
.MODEL DLIM D (IS=100U)
.ENDS IRF540

*IRF610 MCE 4-2-96
*200V  3.3A 1.5 ohm HEXFET pkg:TO-220 2,1,3
.SUBCKT IRF610   10 20 40 40
M1   1  2  3  3  DMOS L=1U W=1U
RD  10  1  .711
RS  30  3  38.5M
RG  20  2  45.4
CGS  2  3  125P
EGD 12  0  2  1  1
VFB 14  0  0
FFB  2  1  VFB  1
CGD 13 14  192P
R1  13  0  1
D1  12 13  DLIM
DDG 15 14  DCGD
R2  12 15  1
D2  15  0  DLIM
DSD  3 10  DSUB
LS  30 40  7.5N
.MODEL DMOS NMOS (LEVEL=3 THETA=60M VMAX=416K ETA=2M VTO=3 KP=.309)
.MODEL DCGD D (CJO=192P VJ=.6 M=.68)
.MODEL DSUB D (IS=13.7N N=1.5 RS=.378 BV=200 CJO=163P VJ=.8 M=.42 TT=150N)
.MODEL DLIM D (IS=100U)
.ENDS IRF610

*IRF614 MCE 4-2-96
*250V  2.7A 2 ohm HEXFET pkg:TO-220 2,1,3
.SUBCKT IRF614   10 20 40 40
M1   1  2  3  3  DMOS L=1U W=1U
RD  10  1  .949
RS  30  3  51M
RG  20  2  55.5
CGS  2  3  130P
EGD 12  0  2  1  1
VFB 14  0  0
FFB  2  1  VFB  1
CGD 13 14  123P
R1  13  0  1
D1  12 13  DLIM
DDG 15 14  DCGD
R2  12 15  1
D2  15  0  DLIM
DSD  3 10  DSUB
LS  30 40  7.5N
.MODEL DMOS NMOS (LEVEL=3 THETA=60M VMAX=521K ETA=2M VTO=3 KP=.472)
.MODEL DCGD D (CJO=123P VJ=.6 M=.68)
.MODEL DSUB D (IS=11.2N N=1.5 RS=.463 BV=250 CJO=139P VJ=.8 M=.42 TT=190N)
.MODEL DLIM D (IS=100U)
.ENDS IRF614

*IRF620 MCE 4-2-96
*200V  5.2A .8 ohm HEXFET pkg:TO-220 2,1,3
.SUBCKT IRF620   10 20 40 40
M1   1  2  3  3  DMOS L=1U W=1U
RD  10  1  .379
RS  30  3  21M
RG  20  2  28.8
CGS  2  3  230P
EGD 12  0  2  1  1
VFB 14  0  0
FFB  2  1  VFB  1
CGD 13 14  385P
R1  13  0  1
D1  12 13  DLIM
DDG 15 14  DCGD
R2  12 15  1
D2  15  0  DLIM
DSD  3 10  DSUB
LS  30 40  7.5N
.MODEL DMOS NMOS (LEVEL=3 THETA=60M VMAX=416K ETA=2M VTO=3 KP=.701)
.MODEL DCGD D (CJO=385P VJ=.6 M=.68)
.MODEL DSUB D (IS=21.5N N=1.5 RS=.202 BV=200 CJO=301P VJ=.8 M=.42 TT=150N)
.MODEL DLIM D (IS=100U)
.ENDS IRF620

*IRF624 MCE 4-2-96
*250V  4.4A 1.1 ohm HEXFET pkg:TO-220 2,1,3
.SUBCKT IRF624   10 20 40 40
M1   1  2  3  3  DMOS L=1U W=1U
RD  10  1  .521
RS  30  3  28.5M
RG  20  2  34.1
CGS  2  3  245P
EGD 12  0  2  1  1
VFB 14  0  0
FFB  2  1  VFB  1
CGD 13 14  192P
R1  13  0  1
D1  12 13  DLIM
DDG 15 14  DCGD
R2  12 15  1
D2  15  0  DLIM
DSD  3 10  DSUB
LS  30 40  7.5N
.MODEL DMOS NMOS (LEVEL=3 THETA=60M VMAX=521K ETA=2M VTO=3 KP=.807)
.MODEL DCGD D (CJO=192P VJ=.6 M=.68)
.MODEL DSUB D (IS=18.2N N=1.5 RS=.238 BV=250 CJO=266P VJ=.8 M=.42 TT=200N)
.MODEL DLIM D (IS=100U)
.ENDS IRF624

*IRF630 MCE 4-2-96
*200V  9A .4 ohm HEXFET pkg:TO-220 2,1,3
.SUBCKT IRF630   10 20 40 40
M1   1  2  3  3  DMOS L=1U W=1U
RD  10  1  .189
RS  30  3  11M
RG  20  2  16.6
CGS  2  3  724P
EGD 12  0  2  1  1
VFB 14  0  0
FFB  2  1  VFB  1
CGD 13 14  976P
R1  13  0  1
D1  12 13  DLIM
DDG 15 14  DCGD
R2  12 15  1
D2  15  0  DLIM
DSD  3 10  DSUB
LS  30 40  7.5N
.MODEL DMOS NMOS (LEVEL=3 THETA=60M VMAX=416K ETA=2M VTO=3 KP=2.58)
.MODEL DCGD D (CJO=976P VJ=.6 M=.68)
.MODEL DSUB D (IS=37.3N N=1.5 RS=.138 BV=200 CJO=705P VJ=.8 M=.42 TT=170N)
.MODEL DLIM D (IS=100U)
.ENDS IRF630

*IRF634 MCE 4-2-96
*250V  8.1A .45 ohm HEXFET pkg:TO-220 2,1,3
.SUBCKT IRF634   10 20 40 40
M1   1  2  3  3  DMOS L=1U W=1U
RD  10  1  .212
RS  30  3  12.2M
RG  20  2  18.5
CGS  2  3  718P
EGD 12  0  2  1  1
VFB 14  0  0
FFB  2  1  VFB  1
CGD 13 14  667P
R1  13  0  1
D1  12 13  DLIM
DDG 15 14  DCGD
R2  12 15  1
D2  15  0  DLIM
DSD  3 10  DSUB
LS  30 40  7.5N
.MODEL DMOS NMOS (LEVEL=3 THETA=60M VMAX=521K ETA=2M VTO=3 KP=.468)
.MODEL DCGD D (CJO=667P VJ=.6 M=.68)
.MODEL DSUB D (IS=33.6N N=1.5 RS=.154 BV=250 CJO=593P VJ=.8 M=.42 TT=220N)
.MODEL DLIM D (IS=100U)
.ENDS IRF634

*IRF640 MCE 4-2-96
*200V  18A .18 ohm HEXFET pkg:TO-220 2,1,3
.SUBCKT IRF640   10 20 40 40
M1   1  2  3  3  DMOS L=1U W=1U
RD  10  1  84.5M
RS  30  3  5.5M
RG  20  2  9.09
CGS  2  3  1.17N
EGD 12  0  2  1  1
VFB 14  0  0
FFB  2  1  VFB  1
CGD 13 14  1.66N
R1  13  0  1
D1  12 13  DLIM
DDG 15 14  DCGD
R2  12 15  1
D2  15  0  DLIM
DSD  3 10  DSUB
LS  30 40  7.5N
.MODEL DMOS NMOS (LEVEL=3 THETA=60M VMAX=416K ETA=2M VTO=3 KP=3.94)
.MODEL DCGD D (CJO=1.66N VJ=.6 M=.68)
.MODEL DSUB D (IS=74.7N N=1.5 RS=69.4M BV=200 CJO=1.29N VJ=.8 M=.42 TT=300N)
.MODEL DLIM D (IS=100U)
.ENDS IRF640

*IRF644 MCE 4-2-96
*250V  14A .28 ohm HEXFET pkg:TO-220 2,1,3
.SUBCKT IRF644   10 20 40 40
M1   1  2  3  3  DMOS L=1U W=1U
RD  10  1  .132
RS  30  3  8M
RG  20  2  21.6
CGS  2  3  1.21N
EGD 12  0  2  1  1
VFB 14  0  0
FFB  2  1  VFB  1
CGD 13 14  1.09N
R1  13  0  1
D1  12 13  DLIM
DDG 15 14  DCGD
R2  12 15  1
D2  15  0  DLIM
DSD  3 10  DSUB
LS  30 40  7.5N
.MODEL DMOS NMOS (LEVEL=3 THETA=60M VMAX=521K ETA=2M VTO=3 KP=4.98)
.MODEL DCGD D (CJO=1.09N VJ=.6 M=.68)
.MODEL DSUB D (IS=58.1N N=1.5 RS=75M BV=250 CJO=1.05N VJ=.8 M=.42 TT=250N)
.MODEL DLIM D (IS=100U)
.ENDS IRF644

*IRF710 MCE 4-2-96
*400V  2A 3.6 ohm HEXFET pkg:TO-220 2,1,3
.SUBCKT IRF710   10 20 40 40
M1   1  2  3  3  DMOS L=1U W=1U
RD  10  1  1.7
RS  30  3  91M
RG  20  2  75
CGS  2  3  163P
EGD 12  0  2  1  1
VFB 14  0  0
FFB  2  1  VFB  1
CGD 13 14  80.9P
R1  13  0  1
D1  12 13  DLIM
DDG 15 14  DCGD
R2  12 15  1
D2  15  0  DLIM
DSD  3 10  DSUB
LS  30 40  7.5N
.MODEL DMOS NMOS (LEVEL=3 THETA=60M VMAX=833K ETA=2M VTO=3 KP=.736)
.MODEL DCGD D (CJO=80.9P VJ=.6 M=.68)
.MODEL DSUB D (IS=8.3N N=1.5 RS=.425 BV=400 CJO=119P VJ=.8 M=.42 TT=240N)
.MODEL DLIM D (IS=100U)
.ENDS IRF710

*IRF720 MCE 4-2-96
*400V  3.3A 1.8 ohm HEXFET pkg:TO-220 2,1,3
.SUBCKT IRF720   10 20 40 40
M1   1  2  3  3  DMOS L=1U W=1U
RD  10  1  .854
RS  30  3  46M
RG  20  2  45.4
CGS  2  3  363P
EGD 12  0  2  1  1
VFB 14  0  0
FFB  2  1  VFB  1
CGD 13 14  603P
R1  13  0  1
D1  12 13  DLIM
DDG 15 14  DCGD
R2  12 15  1
D2  15  0  DLIM
DSD  3 10  DSUB
LS  30 40  7.5N
.MODEL DMOS NMOS (LEVEL=3 THETA=60M VMAX=833K ETA=2M VTO=3 KP=1.27)
.MODEL DCGD D (CJO=603P VJ=.6 M=.68)
.MODEL DSUB D (IS=13.7N N=1.5 RS=.257 BV=400 CJO=314P VJ=.8 M=.42 TT=270N)
.MODEL DLIM D (IS=100U)
.ENDS IRF720

*IRF730 MCE 4-2-96
*400V  5.5A 1 ohm HEXFET pkg:TO-220 2,1,3
.SUBCKT IRF730   10 20 40 40
M1   1  2  3  3  DMOS L=1U W=1U
RD  10  1  .474
RS  30  3  26M
RG  20  2  27.2
CGS  2  3  636P
EGD 12  0  2  1  1
VFB 14  0  0
FFB  2  1  VFB  1
CGD 13 14  821P
R1  13  0  1
D1  12 13  DLIM
DDG 15 14  DCGD
R2  12 15  1
D2  15  0  DLIM
DSD  3 10  DSUB
LS  30 40  7.5N
.MODEL DMOS NMOS (LEVEL=3 THETA=60M VMAX=833K ETA=2M VTO=3 KP=2.25)
.MODEL DCGD D (CJO=821P VJ=.6 M=.68)
.MODEL DSUB D (IS=22.8N N=1.5 RS=.154 BV=400 CJO=456P VJ=.8 M=.42 TT=270N)
.MODEL DLIM D (IS=100U)
.ENDS IRF730

*IRF740 MCE 4-2-96
*400V  10A .55 ohm HEXFET pkg:TO-220 2,1,3
.SUBCKT IRF740   10 20 40 40
M1   1  2  3  3  DMOS L=1U W=1U
RD  10  1  .26
RS  30  3  14.7M
RG  20  2  15
CGS  2  3  1.28N
EGD 12  0  2  1  1
VFB 14  0  0
FFB  2  1  VFB  1
CGD 13 14  1.54N
R1  13  0  1
D1  12 13  DLIM
DDG 15 14  DCGD
R2  12 15  1
D2  15  0  DLIM
DSD  3 10  DSUB
LS  30 40  7.5N
.MODEL DMOS NMOS (LEVEL=3 THETA=60M VMAX=833K ETA=2M VTO=3 KP=4.95)
.MODEL DCGD D (CJO=1.54N VJ=.6 M=.68)
.MODEL DSUB D (IS=41.5N N=1.5 RS=.125 BV=400 CJO=903P VJ=.8 M=.42 TT=370N)
.MODEL DLIM D (IS=100U)
.ENDS IRF740

*IRF820 MCE 4-2-96
*500V  2.5A 3 ohm HEXFET pkg:TO-220 2,1,3
.SUBCKT IRF820   10 20 40 40
M1   1  2  3  3  DMOS L=1U W=1U
RD  10  1  1.42
RS  30  3  76M
RG  20  2  60
CGS  2  3  323P
EGD 12  0  2  1  1
VFB 14  0  0
FFB  2  1  VFB  1
CGD 13 14  475P
R1  13  0  1
D1  12 13  DLIM
DDG 15 14  DCGD
R2  12 15  1
D2  15  0  DLIM
DSD  3 10  DSUB
LS  30 40  7.5N
.MODEL DMOS NMOS (LEVEL=3 THETA=60M VMAX=1.04MEG ETA=2M VTO=3 KP=1.3)
.MODEL DCGD D (CJO=475P VJ=.6 M=.68)
.MODEL DSUB D (IS=10.3N N=1.5 RS=.34 BV=500 CJO=236P VJ=.8 M=.42 TT=260N)
.MODEL DLIM D (IS=100U)
.ENDS IRF820

*IRF830 MCE 4-2-96
*500V  4.5A 1.5 ohm HEXFET pkg:TO-220 2,1,3
.SUBCKT IRF830   10 20 40 40
M1   1  2  3  3  DMOS L=1U W=1U
RD  10  1  .711
RS  30  3  38.5M
RG  20  2  33.3
CGS  2  3  542P
EGD 12  0  2  1  1
VFB 14  0  0
FFB  2  1  VFB  1
CGD 13 14  873P
R1  13  0  1
D1  12 13  DLIM
DDG 15 14  DCGD
R2  12 15  1
D2  15  0  DLIM
DSD  3 10  DSUB
LS  30 40  7.5N
.MODEL DMOS NMOS (LEVEL=3 THETA=60M VMAX=1.04MEG ETA=2M VTO=3 KP=2)
.MODEL DCGD D (CJO=873P VJ=.6 M=.68)
.MODEL DSUB D (IS=18.6N N=1.5 RS=.188 BV=500 CJO=395P VJ=.8 M=.42 TT=320N)
.MODEL DLIM D (IS=100U)
.ENDS IRF830

*IRF840 MCE 4-2-96
*500V  8A .85 ohm HEXFET pkg:TO-220 2,1,3
.SUBCKT IRF840   10 20 40 40
M1   1  2  3  3  DMOS L=1U W=1U
RD  10  1  .402
RS  30  3  22.2M
RG  20  2  18.7
CGS  2  3  1.18N
EGD 12  0  2  1  1
VFB 14  0  0
FFB  2  1  VFB  1
CGD 13 14  1.54N
R1  13  0  1
D1  12 13  DLIM
DDG 15 14  DCGD
R2  12 15  1
D2  15  0  DLIM
DSD  3 10  DSUB
LS  30 40  7.5N
.MODEL DMOS NMOS (LEVEL=3 THETA=60M VMAX=1.04MEG ETA=2M VTO=3 KP=4.33)
.MODEL DCGD D (CJO=1.54N VJ=.6 M=.68)
.MODEL DSUB D (IS=33.2N N=1.5 RS=.156 BV=500 CJO=817P VJ=.8 M=.42 TT=460N)
.MODEL DLIM D (IS=100U)
.ENDS IRF840

*IRF1010 MCE 4-2-96
*55V  75A .014 ohm HEXFET pkg:TO-220 2,1,3
.SUBCKT IRF1010  10 20 40 40
M1   1  2  3  3  DMOS L=1U W=1U
RD  10  1  5.65M
RS  30  3  1.35M
RG  20  2  12.1
CGS  2  3  2.15N
EGD 12  0  2  1  1
VFB 14  0  0
FFB  2  1  VFB  1
CGD 13 14  4.49N
R1  13  0  1
D1  12 13  DLIM
DDG 15 14  DCGD
R2  12 15  1
D2  15  0  DLIM
DSD  3 10  DSUB
LS  30 40  7.5N
.MODEL DMOS NMOS (LEVEL=3 THETA=60M VMAX=114K ETA=2M VTO=3 KP=19.4)
.MODEL DCGD D (CJO=4.49N VJ=.6 M=.68)
.MODEL DSUB D (IS=311N N=1.5 RS=8.67M BV=55 CJO=4.08N VJ=.8 M=.42 TT=100N)
.MODEL DLIM D (IS=100U)
.ENDS IRF1010

*IRF7101 MCE 4-2-96
*20V  3.5A .1 ohm HEXFET pkg:SO-8 (A:8,2,1)(B:6,4,3)
.SUBCKT IRF7101  10 20 40 40
M1   1  2  3  3  DMOS L=1U W=1U
RD  10  1  46.5M
RS  30  3  3.5M
RG  20  2  42.8
CGS  2  3  245P
EGD 12  0  2  1  1
VFB 14  0  0
FFB  2  1  VFB  1
CGD 13 14  687P
R1  13  0  1
D1  12 13  DLIM
DDG 15 14  DCGD
R2  12 15  1
D2  15  0  DLIM
DSD  3 10  DSUB
LS  30 40  6N
.MODEL DMOS NMOS (LEVEL=3 THETA=80M VMAX=41.6K ETA=2M VTO=2 KP=.86)
.MODEL DCGD D (CJO=687P VJ=.6 M=.68)
.MODEL DSUB D (IS=14.5N N=1.5 RS=.157 BV=20 CJO=612P VJ=.8 M=.42 TT=36N)
.MODEL DLIM D (IS=100U)
.ENDS IRF7101

*IRF7102 MCE 4-2-96
*50V  2A .3 ohm HEXFET pkg:SO-8 (A:8,2,1)(B:6,4,3)
.SUBCKT IRF7102  10 20 40 40
M1   1  2  3  3  DMOS L=1U W=1U
RD  10  1  .141
RS  30  3  8.5M
RG  20  2  75
CGS  2  3  108P
EGD 12  0  2  1  1
VFB 14  0  0
FFB  2  1  VFB  1
CGD 13 14  154P
R1  13  0  1
D1  12 13  DLIM
DDG 15 14  DCGD
R2  12 15  1
D2  15  0  DLIM
DSD  3 10  DSUB
LS  30 40  6N
.MODEL DMOS NMOS (LEVEL=3 THETA=80M VMAX=104K ETA=2M VTO=2.25 KP=1)
.MODEL DCGD D (CJO=154P VJ=.6 M=.68)
.MODEL DSUB D (IS=8.3N N=1.5 RS=.325 BV=50 CJO=219P VJ=.8 M=.42 TT=38N)
.MODEL DLIM D (IS=100U)
.ENDS IRF7102

*IRFBC20 MCE 4-9-96
*600V 2.2A 4.4 ohm HEXFET pkg:TO-220 2,1,3
.SUBCKT IRFBC20  10 20 40 40
M1   1  2  3  3  DMOS L=1U W=1U
RD  10  1  2.09
RS  30  3  .111
RG  20  2  68.2
CGS  2  3  341P
EGD 12  0  2  1  1
VFB 14  0  0
FFB  2  1  VFB  1
CGD 13 14  110P
R1  13  0  1
D1  12 13  DLIM
DDG 15 14  DCGD
R2  12 15  1
D2  15  0  DLIM
DSD  3 10  DSUB
LS  30 40  7.5N
.MODEL DMOS NMOS (LEVEL=1 LAMBDA=2M VTO=3 KP=1.05)
.MODEL DCGD D (CJO=110P VJ=.6 M=.68)
.MODEL DSUB D (IS=9.13N N=1.5 RS=.386 BV=600 CJO=169P VJ=.8 M=.42 TT=290N)
.MODEL DLIM D (IS=100U)
.ENDS IRFBC20

*IRFBC30 MCE 4-9-96
*600V 3.6A 2.2 ohm HEXFET pkg:TO-220 2,1,3
.SUBCKT IRFBC30  10 20 40 40
M1   1  2  3  3  DMOS L=1U W=1U
RD  10  1  1.04
RS  30  3  56M
RG  20  2  41.6
CGS  2  3  641P
EGD 12  0  2  1  1
VFB 14  0  0
FFB  2  1  VFB  1
CGD 13 14  244P
R1  13  0  1
D1  12 13  DLIM
DDG 15 14  DCGD
R2  12 15  1
D2  15  0  DLIM
DSD  3 10  DSUB
LS  30 40  7.5N
.MODEL DMOS NMOS (LEVEL=1 LAMBDA=2M VTO=3 KP=1.98)
.MODEL DCGD D (CJO=244P VJ=.6 M=.68)
.MODEL DSUB D (IS=14.9N N=1.5 RS=.236 BV=600 CJO=288P VJ=.8 M=.42 TT=370N)
.MODEL DLIM D (IS=100U)
.ENDS IRFBC30

*IRFBC40 MCE 4-9-96
*600V 6.2A 1.2 ohm HEXFET pkg:TO-220 2,1,3
.SUBCKT IRFBC40  10 20 40 40
M1   1  2  3  3  DMOS L=1U W=1U
RD  10  1  .569
RS  30  3  31M
RG  20  2  24.2
CGS  2  3  1.27N
EGD 12  0  2  1  1
VFB 14  0  0
FFB  2  1  VFB  1
CGD 13 14  385P
R1  13  0  1
D1  12 13  DLIM
DDG 15 14  DCGD
R2  12 15  1
D2  15  0  DLIM
DSD  3 10  DSUB
LS  30 40  7.5N
.MODEL DMOS NMOS (LEVEL=1 LAMBDA=2M VTO=3 KP=4.18)
.MODEL DCGD D (CJO=385P VJ=.6 M=.68)
.MODEL DSUB D (IS=25.7N N=1.5 RS=.121 BV=600 CJO=559P VJ=.8 M=.42 TT=450N)
.MODEL DLIM D (IS=100U)
.ENDS IRFBC40

*IRFBE20 MCE 4-9-96
*800V 1.8A 6.5 ohm HEXFET pkg:TO-220 2,1,3
.SUBCKT IRFBE20  10 20 40 40
M1   1  2  3  3  DMOS L=1U W=1U
RD  10  1  3.08
RS  30  3  .163
RG  20  2  83.3
CGS  2  3  440P
EGD 12  0  2  1  1
VFB 14  0  0
FFB  2  1  VFB  1
CGD 13 14  1.15N
R1  13  0  1
D1  12 13  DLIM
DDG 15 14  DCGD
R2  12 15  1
D2  15  0  DLIM
DSD  3 10  DSUB
LS  30 40  7.5N
.MODEL DMOS NMOS (LEVEL=1 LAMBDA=2M VTO=3 KP=.407)
.MODEL DCGD D (CJO=1.15N VJ=.6 M=.68)
.MODEL DSUB D (IS=7.47N N=1.5 RS=.361 BV=800 CJO=322P VJ=.8 M=.42 TT=380N)
.MODEL DLIM D (IS=100U)
.ENDS IRFBE20

*IRFBE30 MCE 4-9-96
*800V 4.1A 3 ohm HEXFET pkg:TO-220 2,1,3
.SUBCKT IRFBE30  10 20 40 40
M1   1  2  3  3  DMOS L=1U W=1U
RD  10  1  1.42
RS  30  3  76M
RG  20  2  36.6
CGS  2  3  1.11N
EGD 12  0  2  1  1
VFB 14  0  0
FFB  2  1  VFB  1
CGD 13 14  2.44N
R1  13  0  1
D1  12 13  DLIM
DDG 15 14  DCGD
R2  12 15  1
D2  15  0  DLIM
DSD  3 10  DSUB
LS  30 40  7.5N
.MODEL DMOS NMOS (LEVEL=1 LAMBDA=2M VTO=3 KP=1.75)
.MODEL DCGD D (CJO=2.44N VJ=.6 M=.68)
.MODEL DSUB D (IS=17N N=1.5 RS=.256 BV=800 CJO=667P VJ=.8 M=.42 TT=480N)
.MODEL DLIM D (IS=100U)
.ENDS IRFBE30

*IRFBF20 MCE 4-9-96
*900V 1.7A 8 ohm HEXFET pkg:TO-220 2,1,3
.SUBCKT IRFBF20  10 20 40 40
M1   1  2  3  3  DMOS L=1U W=1U
RD  10  1  3.8
RS  30  3  .201
RG  20  2  88.2
CGS  2  3  472P
EGD 12  0  2  1  1
VFB 14  0  0
FFB  2  1  VFB  1
CGD 13 14  231P
R1  13  0  1
D1  12 13  DLIM
DDG 15 14  DCGD
R2  12 15  1
D2  15  0  DLIM
DSD  3 10  DSUB
LS  30 40  7.5N
.MODEL DMOS NMOS (LEVEL=1 LAMBDA=2M VTO=3 KP=.252)
.MODEL DCGD D (CJO=231P VJ=.6 M=.68)
.MODEL DSUB D (IS=7.05N N=1.5 RS=.441 BV=900 CJO=159P VJ=.8 M=.42 TT=350N)
.MODEL DLIM D (IS=100U)
.ENDS IRFBF20

*IRFBF30 MCE 4-9-96
*900V 3.6A 3.7 ohm HEXFET pkg:TO-220 2,1,3
.SUBCKT IRFBF30  10 20 40 40
M1   1  2  3  3  DMOS L=1U W=1U
RD  10  1  1.75
RS  30  3  93.5M
RG  20  2  41.6
CGS  2  3  1N
EGD 12  0  2  1  1
VFB 14  0  0
FFB  2  1  VFB  1
CGD 13 14  2.56N
R1  13  0  1
D1  12 13  DLIM
DDG 15 14  DCGD
R2  12 15  1
D2  15  0  DLIM
DSD  3 10  DSUB
LS  30 40  7.5N
.MODEL DMOS NMOS (LEVEL=1 LAMBDA=2M VTO=3 KP=1.68)
.MODEL DCGD D (CJO=2.56N VJ=.6 M=.68)
.MODEL DSUB D (IS=14.9N N=1.5 RS=.291 BV=900 CJO=688P VJ=.8 M=.42 TT=430N)
.MODEL DLIM D (IS=100U)
.ENDS IRFBF30

*IRFBG20 MCE 4-9-96
*1000V 1.4A 11 ohm HEXFET pkg:TO-220 2,1,3
.SUBCKT IRFBG20  10 20 40 40
M1   1  2  3  3  DMOS L=1U W=1U
RD  10  1  5.22
RS  30  3  .276
RG  20  2  107
CGS  2  3  483P
EGD 12  0  2  1  1
VFB 14  0  0
FFB  2  1  VFB  1
CGD 13 14  218P
R1  13  0  1
D1  12 13  DLIM
DDG 15 14  DCGD
R2  12 15  1
D2  15  0  DLIM
DSD  3 10  DSUB
LS  30 40  7.5N
.MODEL DMOS NMOS (LEVEL=1 LAMBDA=2M VTO=3 KP=.833)
.MODEL DCGD D (CJO=218P VJ=.6 M=.68)
.MODEL DSUB D (IS=5.81N N=1.5 RS=.535 BV=1K CJO=150P VJ=.8 M=.42 TT=130N)
.MODEL DLIM D (IS=100U)
.ENDS IRFBG20

*IRFBG30 MCE 4-9-96
*1000V 3.1A 5 ohm HEXFET pkg:TO-220 2,1,3
.SUBCKT IRFBG30  10 20 40 40
M1   1  2  3  3  DMOS L=1U W=1U
RD  10  1  2.37
RS  30  3  .126
RG  20  2  48.4
CGS  2  3  930P
EGD 12  0  2  1  1
VFB 14  0  0
FFB  2  1  VFB  1
CGD 13 14  642P
R1  13  0  1
D1  12 13  DLIM
DDG 15 14  DCGD
R2  12 15  1
D2  15  0  DLIM
DSD  3 10  DSUB
LS  30 40  7.5N
.MODEL DMOS NMOS (LEVEL=1 LAMBDA=2M VTO=3 KP=1.62)
.MODEL DCGD D (CJO=642P VJ=.6 M=.68)
.MODEL DSUB D (IS=12.8N N=1.5 RS=.338 BV=1K CJO=387P VJ=.8 M=.42 TT=410N)
.MODEL DLIM D (IS=100U)
.ENDS IRFBG30

*IRFZ14 MCE 4-9-96
*60V  10A .2 ohm HEXFET pkg:TO-220 2,1,3
.SUBCKT IRFZ14   10 20 40 40
M1   1  2  3  3  DMOS L=1U W=1U
RD  10  1  94M
RS  30  3  6M
RG  20  2  18.4
CGS  2  3  271P
EGD 12  0  2  1  1
VFB 14  0  0
FFB  2  1  VFB  1
CGD 13 14  372P
R1  13  0  1
D1  12 13  DLIM
DDG 15 14  DCGD
R2  12 15  1
D2  15  0  DLIM
DSD  3 10  DSUB
LS  30 40  7.5N
.MODEL DMOS NMOS (LEVEL=3 THETA=60M VMAX=125K ETA=2M VTO=3 KP=1.29)
.MODEL DCGD D (CJO=372P VJ=.6 M=.68)
.MODEL DSUB D (IS=41.5N N=1.5 RS=85M BV=60 CJO=563P VJ=.8 M=.42 TT=70N)
.MODEL DLIM D (IS=100U)
.ENDS IRFZ14

*50V 15A .1 ohm  HEXFET pkg:TO-220 2,1,3
.SUBCKT IRFZ20 10 20 30 30
M1   4  1  5  5  DMOS L=1U W=1U
RG  20  1  10
RD  10  4  37M
RDS  4  5  1.18MEG
CGD  7  4  590P
RCG  7  4  10MEG
MCG  7  9  1  1  SW
ECG  9  1  1  4  1
DGD  1  6  DCGD
MDG  6  8  4  4  SW
EDG  8  4  4  1  1
DDS  5  4  DSUB
LS   5 30  7.5N
.MODEL DMOS NMOS (LEVEL=3 VMAX=1.6MEG THETA=300M VTO=3.2
+ KP=5.0 RS=5M IS=2.16P CGSO=725U)
.MODEL SW   NMOS (LEVEL=3 VTO=0 KP=20)
.MODEL DCGD D (CJO=590P M=.5 VJ=.41)
.MODEL DSUB D (IS=2.16P RS=0 BV=50 IBV=.001
+ VJ=.8 M=.4 CJO=902P TT=144N)
.ENDS IRFZ20

*IRFZ24 MCE 4-9-96
*60V  17A .1 ohm HEXFET pkg:TO-220 2,1,3
.SUBCKT IRFZ24   10 20 40 40
M1   1  2  3  3  DMOS L=1U W=1U
RD  10  1  46.5M
RS  30  3  3.5M
RG  20  2  20
CGS  2  3  561P
EGD 12  0  2  1  1
VFB 14  0  0
FFB  2  1  VFB  1
CGD 13 14  1.01N
R1  13  0  1
D1  12 13  DLIM
DDG 15 14  DCGD
R2  12 15  1
D2  15  0  DLIM
DSD  3 10  DSUB
LS  30 40  7.5N
.MODEL DMOS NMOS (LEVEL=3 THETA=60M VMAX=125K ETA=2M VTO=3 KP=4.08)
.MODEL DCGD D (CJO=1.01N VJ=.6 M=.68)
.MODEL DSUB D (IS=70.5N N=1.5 RS=44.1M BV=60 CJO=1.2N VJ=.8 M=.42 TT=88N)
.MODEL DLIM D (IS=100U)
.ENDS IRFZ24

*IRFZ34 MCE 4-9-96
*60V  30A .05 ohm HEXFET pkg:TO-220 2,1,3
.SUBCKT IRFZ34   10 20 40 40
M1   1  2  3  3  DMOS L=1U W=1U
RD  10  1  22.7M
RS  30  3  2.25M
RG  20  2  19.4
CGS  2  3  1.1N
EGD 12  0  2  1  1
VFB 14  0  0
FFB  2  1  VFB  1
CGD 13 14  1.28N
R1  13  0  1
D1  12 13  DLIM
DDG 15 14  DCGD
R2  12 15  1
D2  15  0  DLIM
DSD  3 10  DSUB
LS  30 40  7.5N
.MODEL DMOS NMOS (LEVEL=3 THETA=60M VMAX=125K ETA=2M VTO=3 KP=6.48)
.MODEL DCGD D (CJO=1.28N VJ=.6 M=.68)
.MODEL DSUB D (IS=124N N=1.5 RS=28.3M BV=60 CJO=2.15N VJ=.8 M=.42 TT=120N)
.MODEL DLIM D (IS=100U)
.ENDS IRFZ34

*IRFZ44 MCE 4-8-96
*60V  50A .028 ohm HEXFET pkg:TO-220 2,1,3
.SUBCKT IRFZ44   10 20 40 40
M1   1  2  3  3  DMOS L=1U W=1U
RD  10  1  12.3M
RS  30  3  1.7M
RG  20  2  24.7
CGS  2  3  1.73N
EGD 12  0  2  1  1
VFB 14  0  0
FFB  2  1  VFB  1
CGD 13 14  2.18N
R1  13  0  1
D1  12 13  DLIM
DDG 15 14  DCGD
R2  12 15  1
D2  15  0  DLIM
DSD  3 10  DSUB
LS  30 40  7.5N
.MODEL DMOS NMOS (LEVEL=3 THETA=60M VMAX=125K ETA=2M VTO=3 KP=9.79)
.MODEL DCGD D (CJO=2.18N VJ=.6 M=.68)
.MODEL DSUB D (IS=207N N=1.5 RS=35M BV=60 CJO=3.22N VJ=.8 M=.42 TT=120N)
.MODEL DLIM D (IS=100U)
.ENDS IRFZ44

*IRFZ46 MCE 4-9-96
*50V  50A .024 ohm HEXFET pkg:TO-220 2,1,3
.SUBCKT IRFZ46   10 20 40 40
M1   1  2  3  3  DMOS L=1U W=1U
RD  10  1  10.4M
RS  30  3  1.6M
RG  20  2  27.8
CGS  2  3  1.64N
EGD 12  0  2  1  1
VFB 14  0  0
FFB  2  1  VFB  1
CGD 13 14  2.05N
R1  13  0  1
D1  12 13  DLIM
DDG 15 14  DCGD
R2  12 15  1
D2  15  0  DLIM
DSD  3 10  DSUB
LS  30 40  7.5N
.MODEL DMOS NMOS (LEVEL=3 THETA=60M VMAX=104K ETA=2M VTO=3 KP=33.2)
.MODEL DCGD D (CJO=2.05N VJ=.6 M=.68)
.MODEL DSUB D (IS=207N N=1.5 RS=35M BV=50 CJO=3.44N VJ=.8 M=.42 TT=66N)
.MODEL DLIM D (IS=100U)
.ENDS IRFZ46

*IRFZ48 MCE 4-8-96
*60V  50A .018 ohm HEXFET pkg:TO-220 2,1,3
.SUBCKT IRFZ48   10 20 40 40
M1   1  2  3  3  DMOS L=1U W=1U
RD  10  1  7.55M
RS  30  3  1.45M
RG  20  2  68.4
CGS  2  3  2.21N
EGD 12  0  2  1  1
VFB 14  0  0
FFB  2  1  VFB  1
CGD 13 14  2.44N
R1  13  0  1
D1  12 13  DLIM
DDG 15 14  DCGD
R2  12 15  1
D2  15  0  DLIM
DSD  3 10  DSUB
LS  30 40  7.5N
.MODEL DMOS NMOS (LEVEL=3 THETA=60M VMAX=125K ETA=2M VTO=3 KP=22.8)
.MODEL DCGD D (CJO=2.44N VJ=.6 M=.68)
.MODEL DSUB D (IS=207N N=1.5 RS=25M BV=60 CJO=4.77N VJ=.8 M=.42 TT=120N)
.MODEL DLIM D (IS=100U)
.ENDS IRFZ48

*MP15N06E  MCE  7/6/95
*60V  15A  .08 ohm Power MOSFET
.SUBCKT MP15N06E 10 20 40 40
M1   1  2  3  3  DMOS L=1U W=1U
RD  10  1  37M
RS  30  3  3M
RG  20  2  56
CGS  2  3  432P
EGD 12  0  2  1  1
VFB 14  0  0
FFB  2  1  VFB  1
CGD 13 14  549P
R1  13  0  1
D1  12 13  DLIM
DDG 15 14  DCGD
R2  12 15  1
D2  15  0  DLIM
DSD  3 10  DSUB
LS  30 40  7.5N
.MODEL DMOS NMOS(LEVEL=3 THETA=58M VMAX=125K ETA=2M VTO=3.1 KP=6.45)
.MODEL DCGD D(CJO=549P VJ=.6 M=.68)
.MODEL DSUB D(IS=62.2N N=1.5 RS=25.3M BV=60 CJO=838P VJ=.8 M=.42 TT=317N)
.MODEL DLIM D(IS=100U)
.ENDS MP15N06E

*SI3442DV  MCE  5-27-97
*20V 4A 0.065ohm Power MOSFET pkg:TSOP-6 1,3,4
.SUBCKT SI3442DV 10 20 40 40
*     TERMINALS:  D  G  S
M1   1  2  3  3  DMOS L=1U W=1U
RD  10  1  29.9M
RS  40  3  2.62M
RG  20  2  37.5
CGS  2  3  420P
EGD 12  0  2  1  1
VFB 14  0  0
FFB  2  1  VFB  1
CGD 13 14  317P
R1  13  0  1
D1  12 13  DLIM
DDG 15 14  DCGD
R2  12 15  1
D2  15  0  DLIM
DSD  3 10  DSUB
LS  30 40  7.5N
.MODEL DMOS NMOS (LEVEL=3 VMAX=41.7K THETA=80M ETA=2M VTO=0.6 KP=79.4)
.MODEL DCGD D (CJO=317P VJ=0.6 M=0.68)
.MODEL DSUB D (IS=16.6N N=1.5 RS=0 BV=20 CJO=352P VJ=0.8 M=0.42 TT=40N)
.MODEL DLIM D (IS=100U)
.ENDS 

*SI6434DQ  MCE  5-27-97
*30V 6A 0.026ohm Power MOSFET pkg:SMD8B 1,4,6
.SUBCKT SI6434DQ 10 20 40 40
*     TERMINALS:  D  G  S
M1   1  2  3  3  DMOS L=1U W=1U
RD  10  1  11.3M
RS  40  3  1.65M
RG  20  2  26.8
CGS  2  3  1.05N
EGD 12  0  2  1  1
VFB 14  0  0
FFB  2  1  VFB  1
CGD 13 14  642P
R1  13  0  1
D1  12 13  DLIM
DDG 15 14  DCGD
R2  12 15  1
D2  15  0  DLIM
DSD  3 10  DSUB
LS  30 40  7.5N
.MODEL DMOS NMOS (LEVEL=3 VMAX=62.5K THETA=80M ETA=2M VTO=1 KP=67.9)
.MODEL DCGD D (CJO=642P VJ=0.6 M=0.68)
.MODEL DSUB D (IS=23.2N N=1.5 RS=0 BV=30 CJO=1.12N VJ=0.8 M=0.42 TT=45N)
.MODEL DLIM D (IS=100U)
.ENDS 

*SI6925DQ  MCE  5-27-97
*20V 3A 0.041ohm Dual Power MOSFET pkg:SMD8B (A:1,4,3)(B:8,5,6)
.SUBCKT SI6925DQ 10 20 40 40
*     TERMINALS:  D  G  S
M1   1  2  3  3  DMOS L=1U W=1U
RD  10  1  18.5M
RS  40  3  2.03M
RG  20  2  44.1
CGS  2  3  560P
EGD 12  0  2  1  1
VFB 14  0  0
FFB  2  1  VFB  1
CGD 13 14  317P
R1  13  0  1
D1  12 13  DLIM
DDG 15 14  DCGD
R2  12 15  1
D2  15  0  DLIM
DSD  3 10  DSUB
LS  30 40  7.5N
.MODEL DMOS NMOS (LEVEL=3 VMAX=41.7K THETA=80M ETA=2M VTO=0.5 KP=237)
.MODEL DCGD D (CJO=317P VJ=0.6 M=0.68)
.MODEL DSUB D (IS=310N N=1.5 RS=20.6M BV=20 CJO=577P VJ=0.8 M=0.42 TT=50N)
.MODEL DLIM D (IS=100U)
.ENDS 

*SI6926DQ  MCE  5-27-97
*20V 4A 0.029ohm Dual Power MOSFET pkg:SMD8B (A:1,4,3)(B:8,5,6)
.SUBCKT SI6926DQ 10 20 40 40
*     TERMINALS:  D  G  S
M1   1  2  3  3  DMOS L=1U W=1U
RD  10  1  12.8M
RS  40  3  1.73M
RG  20  2  37.5
CGS  2  3  560P
EGD 12  0  2  1  1
VFB 14  0  0
FFB  2  1  VFB  1
CGD 13 14  1.51N
R1  13  0  1
D1  12 13  DLIM
DDG 15 14  DCGD
R2  12 15  1
D2  15  0  DLIM
DSD  3 10  DSUB
LS  30 40  7.5N
.MODEL DMOS NMOS (LEVEL=3 VMAX=41.7K THETA=80M ETA=2M VTO=0.5 KP=201)
.MODEL DCGD D (CJO=1.51N VJ=0.6 M=0.68)
.MODEL DSUB D (IS=364N N=1.5 RS=17.5M BV=20 CJO=401P VJ=0.8 M=0.42 TT=50N)
.MODEL DLIM D (IS=100U)
.ENDS 

*SI6954DQ  MCE  5-27-97
*30V 4A 0.091ohm Dual Power MOSFET pkg:SMD8B (A:1,4,3)(B:8,5,6)
.SUBCKT SI6954DQ 10 20 40 40
*     TERMINALS:  D  G  S
M1   1  2  3  3  DMOS L=1U W=1U
RD  10  1  42.2M
RS  40  3  3.28M
RG  20  2  38.5
CGS  2  3  530P
EGD 12  0  2  1  1
VFB 14  0  0
FFB  2  1  VFB  1
CGD 13 14  275P
R1  13  0  1
D1  12 13  DLIM
DDG 15 14  DCGD
R2  12 15  1
D2  15  0  DLIM
DSD  3 10  DSUB
LS  30 40  7.5N
.MODEL DMOS NMOS (LEVEL=3 VMAX=62.5K THETA=80M ETA=2M VTO=1 KP=24.4)
.MODEL DCGD D (CJO=275P VJ=0.6 M=0.68)
.MODEL DSUB D (IS=16.2N N=1.5 RS=5.13M BV=30 CJO=525P VJ=0.8 M=0.42 TT=48N)
.MODEL DLIM D (IS=100U)
.ENDS 

*SI6331DQ  MCE  5-27-97
*30V 6A 0.025ohm Triple Power MOSFET pkg:SMD28 (A:1,4,26)(B:6,9,21)(C:11,14,16)
.SUBCKT SI6331DQ 10 20 40 40
*     TERMINALS:  D  G  S
M1   1  2  3  3  DMOS L=1U W=1U
RD  10  1  10.9M
RS  40  3  1.63M
RG  20  2  26.8
CGS  2  3  1.3N
EGD 12  0  2  1  1
VFB 14  0  0
FFB  2  1  VFB  1
CGD 13 14  517P
R1  13  0  1
D1  12 13  DLIM
DDG 15 14  DCGD
R2  12 15  1
D2  15  0  DLIM
DSD  3 10  DSUB
LS  30 40  7.5N
.MODEL DMOS NMOS (LEVEL=3 VMAX=62.5K THETA=80M ETA=2M VTO=1 KP=67.9)
.MODEL DCGD D (CJO=517P VJ=0.6 M=0.68)
.MODEL DSUB D (IS=23.2N N=1.5 RS=1.79M BV=30 CJO=1.17N VJ=0.8 M=0.42 TT=50N)
.MODEL DLIM D (IS=100U)
.ENDS 

*SI4420DY  MCE  5-27-97
*30V 12A 0.0088ohm Power MOSFET pkg:SMD8A 8,4,1
.SUBCKT SI4420DY 10 20 40 40
*     TERMINALS:  D  G  S
M1   1  2  3  3  DMOS L=1U W=1U
RD  10  1  3.18M
RS  40  3  1.22M
RG  20  2  12
CGS  2  3  4.6N
EGD 12  0  2  1  1
VFB 14  0  0
FFB  2  1  VFB  1
CGD 13 14  4.13N
R1  13  0  1
D1  12 13  DLIM
DDG 15 14  DCGD
R2  12 15  1
D2  15  0  DLIM
DSD  3 10  DSUB
LS  30 40  7.5N
.MODEL DMOS NMOS (LEVEL=3 VMAX=62.5K THETA=80M ETA=2M VTO=1 KP=388)
.MODEL DCGD D (CJO=4.13N VJ=0.6 M=0.68)
.MODEL DSUB D (IS=51.9N N=1.5 RS=20M BV=30 CJO=1.51N VJ=0.8 M=0.42 TT=49N)
.MODEL DLIM D (IS=100U)
.ENDS 

*SI4450DY  MCE  5-27-97
*60V 8A 0.022ohm Power MOSFET pkg:SMD8A 8,4,1
.SUBCKT SI4450DY 10 20 40 40
*     TERMINALS:  D  G  S
M1   1  2  3  3  DMOS L=1U W=1U
RD  10  1  9.45M
RS  40  3  1.55M
RG  20  2  20
CGS  2  3  1.54N
EGD 12  0  2  1  1
VFB 14  0  0
FFB  2  1  VFB  1
CGD 13 14  725P
R1  13  0  1
D1  12 13  DLIM
DDG 15 14  DCGD
R2  12 15  1
D2  15  0  DLIM
DSD  3 10  DSUB
LS  30 40  7.5N
.MODEL DMOS NMOS (LEVEL=3 VMAX=125K THETA=80M ETA=2M VTO=2 KP=63.5)
.MODEL DCGD D (CJO=725P VJ=0.6 M=0.68)
.MODEL DSUB D (IS=31.1N N=1.5 RS=0 BV=60 CJO=1.11N VJ=0.8 M=0.42 TT=46N)
.MODEL DLIM D (IS=100U)
.ENDS 

*SI4480DY  MCE  5-27-97
*80V 6A 0.028ohm Power MOSFET pkg:SMD8A 8,4,1
.SUBCKT SI4480DY 10 20 40 40
*     TERMINALS:  D  G  S
M1   1  2  3  3  DMOS L=1U W=1U
RD  10  1  12.3M
RS  40  3  1.7M
RG  20  2  25
CGS  2  3  1.81N
EGD 12  0  2  1  1
VFB 14  0  0
FFB  2  1  VFB  1
CGD 13 14  1.3N
R1  13  0  1
D1  12 13  DLIM
DDG 15 14  DCGD
R2  12 15  1
D2  15  0  DLIM
DSD  3 10  DSUB
LS  30 40  7.5N