*==============================================
*Copyright (c) 1997 MicroCode Engineering, Inc.
*All Rights Reserved
*==============================================

*===========================================
*Triac pinout: MT2 G MT1
*===========================================

*MAC15A6 MCE 2-27-96
*400V 15A pkg:TO-220 2,3,1
.SUBCKT MAC15A6  1  2  3
QN1  5 4 3  NOUT OFF
QN2 11 6 7  NOUT OFF
QP1 6 11 3  POUT OFF
QP2  4 5 7  POUT OFF
DF  4  5  DZ OFF
DR  6 11  DZ OFF
RF  4 6  40MEG
RT2 1 7  18.8M
RH  7 6  87.5
RGP 8 3  23.1
RG  2 8  11.5
RS  8 4  102
DN  9 2  DIN OFF
RN  9 3  41.6
GNN  6 7 9 3 15.2M
GNP  4 5 9 3 18.1M
DP 2 10  DIP OFF
RP 10 3  29.5
GP  7 6 10 3 10.3M
.MODEL DIN  D (IS=45.8F)
.MODEL DIP  D (IS=45.8F N=1.2)
.MODEL DZ   D (IS=45.8F N=1.5 IBV=10U BV=400)
.MODEL POUT PNP (IS=45.8F BF=5 CJE=4.02N TF=38.2U)
.MODEL NOUT NPN (IS=45.8F BF=20 CJE=4.02N CJC=804P TF=2.55U)
.ENDS MAC15A6

*===========================================
*MAC15A8 MCE 2-27-96
*600V 15A pkg:TO-220 2,3,1
.SUBCKT MAC15A8  1  2  3
QN1  5 4 3  NOUT OFF
QN2 11 6 7  NOUT OFF
QP1 6 11 3  POUT OFF
QP2  4 5 7  POUT OFF
DF  4  5  DZ OFF
DR  6 11  DZ OFF
RF  4 6  60MEG
RT2 1 7  18.8M
RH  7 6  87.5
RGP 8 3  23.1
RG  2 8  11.5
RS  8 4  102
DN  9 2  DIN OFF
RN  9 3  41.6
GNN  6 7 9 3 15.2M
GNP  4 5 9 3 18.1M
DP 2 10  DIP OFF
RP 10 3  29.5
GP  7 6 10 3 10.3M
.MODEL DIN  D (IS=45.8F)
.MODEL DIP  D (IS=45.8F N=1.2)
.MODEL DZ   D (IS=45.8F N=1.5 IBV=10U BV=600)
.MODEL POUT PNP (IS=45.8F BF=5 CJE=4.02N TF=38.2U)
.MODEL NOUT NPN (IS=45.8F BF=20 CJE=4.02N CJC=804P TF=2.55U)
.ENDS MAC15A8

*===========================================
*MAC210-4 MCE 2-27-96
*200V 10A pkg:TO-220 2,3,1
.SUBCKT MAC210-4  1  2  3
QN1  5 4 3  NOUT OFF
QN2 11 6 7  NOUT OFF
QP1 6 11 3  POUT OFF
QP2  4 5 7  POUT OFF
DF  4  5  DZ OFF
DR  6 11  DZ OFF
RF  4 6  20MEG
RT2 1 7  21.1M
RH  7 6  87.5
RGP 8 3  50
RG  2 8  25
RS  8 4  75
DN  9 2  DIN OFF
RN  9 3  65.6
GNN  6 7 9 3 15.2M
GNP  4 5 9 3 21.6M
DP 2 10  DIP OFF
RP 10 3  55.6
GP  7 6 10 3 10.3M
.MODEL DIN  D (IS=45.8F)
.MODEL DIP  D (IS=45.8F N=1.2)
.MODEL DZ   D (IS=45.8F N=1.5 IBV=10U BV=200)
.MODEL POUT PNP (IS=45.8F BF=5 CJE=201P TF=38.2U)
.MODEL NOUT NPN (IS=45.8F BF=20 CJE=201P CJC=40.2P TF=2.55U)
.ENDS MAC210-4

*===========================================
*MAC210-6 MCE 2-27-96
*400V 10A pkg:TO-220 2,3,1
.SUBCKT MAC210-6  1  2  3
QN1  5 4 3  NOUT OFF
QN2 11 6 7  NOUT OFF
QP1 6 11 3  POUT OFF
QP2  4 5 7  POUT OFF
DF  4  5  DZ OFF
DR  6 11  DZ OFF
RF  4 6  40MEG
RT2 1 7  21.1M
RH  7 6  87.5
RGP 8 3  50
RG  2 8  25
RS  8 4  75
DN  9 2  DIN OFF
RN  9 3  65.6
GNN  6 7 9 3 15.2M
GNP  4 5 9 3 21.6M
DP 2 10  DIP OFF
RP 10 3  55.6
GP  7 6 10 3 10.3M
.MODEL DIN  D (IS=45.8F)
.MODEL DIP  D (IS=45.8F N=1.2)
.MODEL DZ   D (IS=45.8F N=1.5 IBV=10U BV=400)
.MODEL POUT PNP (IS=45.8F BF=5 CJE=201P TF=38.2U)
.MODEL NOUT NPN (IS=45.8F BF=20 CJE=201P CJC=40.2P TF=2.55U)
.ENDS MAC210-6

*===========================================
*MAC210-8 MCE 2-27-96
*600V 10A pkg:TO-220 2,3,1
.SUBCKT MAC210-8  1  2  3
QN1  5 4 3  NOUT OFF
QN2 11 6 7  NOUT OFF
QP1 6 11 3  POUT OFF
QP2  4 5 7  POUT OFF
DF  4  5  DZ OFF
DR  6 11  DZ OFF
RF  4 6  60MEG
RT2 1 7  21.1M
RH  7 6  87.5
RGP 8 3  50
RG  2 8  25
RS  8 4  75
DN  9 2  DIN OFF
RN  9 3  65.6
GNN  6 7 9 3 15.2M
GNP  4 5 9 3 21.6M
DP 2 10  DIP OFF
RP 10 3  55.6
GP  7 6 10 3 10.3M
.MODEL DIN  D (IS=45.8F)
.MODEL DIP  D (IS=45.8F N=1.2)
.MODEL DZ   D (IS=45.8F N=1.5 IBV=10U BV=600)
.MODEL POUT PNP (IS=45.8F BF=5 CJE=201P TF=38.2U)
.MODEL NOUT NPN (IS=45.8F BF=20 CJE=201P CJC=40.2P TF=2.55U)
.ENDS MAC210-8

*===========================================
*MAC210-10 MCE 2-27-96
*800V 10A pkg:TO-220 2,3,1
.SUBCKT MAC210-10  1  2  3
QN1  5 4 3  NOUT OFF
QN2 11 6 7  NOUT OFF
QP1 6 11 3  POUT OFF
QP2  4 5 7  POUT OFF
DF  4  5  DZ OFF
DR  6 11  DZ OFF
RF  4 6  80MEG
RT2 1 7  21.1M
RH  7 6  87.5
RGP 8 3  50
RG  2 8  25
RS  8 4  75
DN  9 2  DIN OFF
RN  9 3  65.6
GNN  6 7 9 3 15.2M
GNP  4 5 9 3 21.6M
DP 2 10  DIP OFF
RP 10 3  55.6
GP  7 6 10 3 10.3M
.MODEL DIN  D (IS=45.8F)
.MODEL DIP  D (IS=45.8F N=1.2)
.MODEL DZ   D (IS=45.8F N=1.5 IBV=10U BV=800)
.MODEL POUT PNP (IS=45.8F BF=5 CJE=201P TF=38.2U)
.MODEL NOUT NPN (IS=45.8F BF=20 CJE=201P CJC=40.2P TF=2.55U)
.ENDS MAC210-10

*===========================================
* Q201E3 MCE 3-7-97
* Ref: Teccor Electornics, Inc. General Catalog 95/96 pg. 20-21
*200V 1A pkg:TO-92B 1,2,3
.SUBCKT Q201E3   1  2  3
*     TERMINALS: MT2 G MT1
QN1  5 4 3  NOUT OFF
QN2 11 6 7  NOUT OFF
QP1 6 11 3  POUT OFF
QP2  4 5 7  POUT OFF
DF  4  5  DZ OFF
DR  6 11  DZ OFF
RF  4 6  10MEG
RT2 1 7  0.7
RH  7 6  750
RGP 8 3  54.9
RG  2 8  154
RS  8 4  1.02K
DN  9 2  DIN OFF
RN  9 3  248
GNN  6 7 9 3 479U
GNP  4 5 9 3 231U
DP 2 10  DIP OFF
RP 10 3  2K
GP  7 6 10 3 244U
.MODEL DIN  D (IS=5.35F)
.MODEL DIP  D (IS=5.35F N=1.5)
.MODEL DZ   D (IS=5.35F N=1.5 IBV=20U BV=200)
.MODEL POUT PNP (IS=5.35F BF=5 CJE=23.4P TF=63.8U)
.MODEL NOUT NPN (IS=5.35F BF=20 CJE=23.4P CJC=4.69P TF=4.25U)
.ENDS Q201E3

*===========================================
* Q401E3 MCE 3-7-97
* Ref: Teccor Electornics, Inc. General Catalog 95/96 pg. 20-21
*400V 1A pkg:TO-92B 1,2,3
.SUBCKT Q401E3   1  2  3
*     TERMINALS: MT2 G MT1
QN1  5 4 3  NOUT OFF
QN2 11 6 7  NOUT OFF
QP1 6 11 3  POUT OFF
QP2  4 5 7  POUT OFF
DF  4  5  DZ OFF
DR  6 11  DZ OFF
RF  4 6  20MEG
RT2 1 7  0.7
RH  7 6  750
RGP 8 3  54.9
RG  2 8  154
RS  8 4  1.02K
DN  9 2  DIN OFF
RN  9 3  248
GNN  6 7 9 3 479U
GNP  4 5 9 3 231U
DP 2 10  DIP OFF
RP 10 3  2K
GP  7 6 10 3 244U
.MODEL DIN  D (IS=5.35F)
.MODEL DIP  D (IS=5.35F N=1.5)
.MODEL DZ   D (IS=5.35F N=1.5 IBV=20U BV=400)
.MODEL POUT PNP (IS=5.35F BF=5 CJE=23.4P TF=63.8U)
.MODEL NOUT NPN (IS=5.35F BF=20 CJE=23.4P CJC=4.69P TF=4.25U)
.ENDS Q401E3

*===========================================
* Q501E3 MCE 3-7-97
* Ref: Teccor Electornics, Inc. General Catalog 95/96 pg. 20-21
*500V 1A pkg:TO-92B 1,2,3
.SUBCKT Q501E3   1  2  3
*     TERMINALS: MT2 G MT1
QN1  5 4 3  NOUT OFF
QN2 11 6 7  NOUT OFF
QP1 6 11 3  POUT OFF
QP2  4 5 7  POUT OFF
DF  4  5  DZ OFF
DR  6 11  DZ OFF
RF  4 6  25MEG
RT2 1 7  0.7
RH  7 6  750
RGP 8 3  54.9
RG  2 8  154
RS  8 4  1.02K
DN  9 2  DIN OFF
RN  9 3  248
GNN  6 7 9 3 479U
GNP  4 5 9 3 231U
DP 2 10  DIP OFF
RP 10 3  2K
GP  7 6 10 3 244U
.MODEL DIN  D (IS=5.35F)
.MODEL DIP  D (IS=5.35F N=1.5)
.MODEL DZ   D (IS=5.35F N=1.5 IBV=20U BV=500)
.MODEL POUT PNP (IS=5.35F BF=5 CJE=23.4P TF=63.8U)
.MODEL NOUT NPN (IS=5.35F BF=20 CJE=23.4P CJC=4.69P TF=4.25U)
.ENDS Q501E3

*===========================================
* Q601E3 MCE 3-7-97
* Ref: Teccor Electornics, Inc. General Catalog 95/96 pg. 20-21
*600V 1A pkg:TO-92B 1,2,3
.SUBCKT Q601E3   1  2  3
*     TERMINALS: MT2 G MT1
QN1  5 4 3  NOUT OFF
QN2 11 6 7  NOUT OFF
QP1 6 11 3  POUT OFF
QP2  4 5 7  POUT OFF
DF  4  5  DZ OFF
DR  6 11  DZ OFF
RF  4 6  30MEG
RT2 1 7  0.7
RH  7 6  750
RGP 8 3  54.9
RG  2 8  154
RS  8 4  1.02K
DN  9 2  DIN OFF
RN  9 3  248
GNN  6 7 9 3 479U
GNP  4 5 9 3 231U
DP 2 10  DIP OFF
RP 10 3  2K
GP  7 6 10 3 244U
.MODEL DIN  D (IS=5.35F)
.MODEL DIP  D (IS=5.35F N=1.5)
.MODEL DZ   D (IS=5.35F N=1.5 IBV=20U BV=600)
.MODEL POUT PNP (IS=5.35F BF=5 CJE=23.4P TF=63.8U)
.MODEL NOUT NPN (IS=5.35F BF=20 CJE=23.4P CJC=4.69P TF=4.25U)
.ENDS Q601E3

*===========================================
* Q201E4 MCE 3-7-97
* Ref: Teccor Electornics, Inc. General Catalog 95/96 pg. 20-21
*200V 1A pkg:TO-92B 1,2,3
.SUBCKT Q201E4   1  2  3
*     TERMINALS: MT2 G MT1
QN1  5 4 3  NOUT OFF
QN2 11 6 7  NOUT OFF
QP1 6 11 3  POUT OFF
QP2  4 5 7  POUT OFF
DF  4  5  DZ OFF
DR  6 11  DZ OFF
RF  4 6  10MEG
RT2 1 7  0.7
RH  7 6  750
RGP 8 3  22.2
RG  2 8  83.6
RS  8 4  1.05K
DN  9 2  DIN OFF
RN  9 3  138
GNN  6 7 9 3 343U
GNP  4 5 9 3 162U
DP 2 10  DIP OFF
RP 10 3  1K
GP  7 6 10 3 168U
.MODEL DIN  D (IS=5.35F)
.MODEL DIP  D (IS=5.35F N=1.5)
.MODEL DZ   D (IS=5.35F N=1.5 IBV=20U BV=200)
.MODEL POUT PNP (IS=5.35F BF=5 CJE=23.4P TF=76.5U)
.MODEL NOUT NPN (IS=5.35F BF=20 CJE=23.4P CJC=4.69P TF=5.1U)
.ENDS Q201E4

*===========================================
* Q401E4 MCE 3-7-97
* Ref: Teccor Electornics, Inc. General Catalog 95/96 pg. 20-21
*400V 1A pkg:TO-92B 1,2,3
.SUBCKT Q401E4   1  2  3
*     TERMINALS: MT2 G MT1
QN1  5 4 3  NOUT OFF
QN2 11 6 7  NOUT OFF
QP1 6 11 3  POUT OFF
QP2  4 5 7  POUT OFF
DF  4  5  DZ OFF
DR  6 11  DZ OFF
RF  4 6  20MEG
RT2 1 7  0.7
RH  7 6  750
RGP 8 3  22.2
RG  2 8  83.6
RS  8 4  1.05K
DN  9 2  DIN OFF
RN  9 3  138
GNN  6 7 9 3 343U
GNP  4 5 9 3 162U
DP 2 10  DIP OFF
RP 10 3  1K
GP  7 6 10 3 168U
.MODEL DIN  D (IS=5.35F)
.MODEL DIP  D (IS=5.35F N=1.5)
.MODEL DZ   D (IS=5.35F N=1.5 IBV=20U BV=400)
.MODEL POUT PNP (IS=5.35F BF=5 CJE=23.4P TF=76.5U)
.MODEL NOUT NPN (IS=5.35F BF=20 CJE=23.4P CJC=4.69P TF=5.1U)
.ENDS Q401E4

*===========================================
* Q501E4 MCE 3-7-97
* Ref: Teccor Electornics, Inc. General Catalog 95/96 pg. 20-21
*500V 1A pkg:TO-92B 1,2,3
.SUBCKT Q501E4   1  2  3
*     TERMINALS: MT2 G MT1
QN1  5 4 3  NOUT OFF
QN2 11 6 7  NOUT OFF
QP1 6 11 3  POUT OFF
QP2  4 5 7  POUT OFF
DF  4  5  DZ OFF
DR  6 11  DZ OFF
RF  4 6  25MEG
RT2 1 7  0.7
RH  7 6  750
RGP 8 3  22.2
RG  2 8  83.6
RS  8 4  1.05K
DN  9 2  DIN OFF
RN  9 3  138
GNN  6 7 9 3 343U
GNP  4 5 9 3 162U
DP 2 10  DIP OFF
RP 10 3  1K
GP  7 6 10 3 168U
.MODEL DIN  D (IS=5.35F)
.MODEL DIP  D (IS=5.35F N=1.5)
.MODEL DZ   D (IS=5.35F N=1.5 IBV=20U BV=500)
.MODEL POUT PNP (IS=5.35F BF=5 CJE=23.4P TF=76.5U)
.MODEL NOUT NPN (IS=5.35F BF=20 CJE=23.4P CJC=4.69P TF=5.1U)
.ENDS Q501E4

*===========================================
* Q601E4 MCE 3-7-97
* Ref: Teccor Electornics, Inc. General Catalog 95/96 pg. 20-21
*600V 1A pkg:TO-92B 1,2,3
.SUBCKT Q601E4   1  2  3
*     TERMINALS: MT2 G MT1
QN1  5 4 3  NOUT OFF
QN2 11 6 7  NOUT OFF
QP1 6 11 3  POUT OFF
QP2  4 5 7  POUT OFF
DF  4  5  DZ OFF
DR  6 11  DZ OFF
RF  4 6  30MEG
RT2 1 7  0.7
RH  7 6  750
RGP 8 3  22.2
RG  2 8  83.6
RS  8 4  1.05K
DN  9 2  DIN OFF
RN  9 3  138
GNN  6 7 9 3 343U
GNP  4 5 9 3 162U
DP 2 10  DIP OFF
RP 10 3  1K
GP  7 6 10 3 168U
.MODEL DIN  D (IS=5.35F)
.MODEL DIP  D (IS=5.35F N=1.5)
.MODEL DZ   D (IS=5.35F N=1.5 IBV=20U BV=600)
.MODEL POUT PNP (IS=5.35F BF=5 CJE=23.4P TF=76.5U)
.MODEL NOUT NPN (IS=5.35F BF=20 CJE=23.4P CJC=4.69P TF=5.1U)
.ENDS Q601E4

*===========================================
* Q2004L3 MCE 3-7-97
* Ref: Teccor Electornics, Inc. General Catalog 95/96 pg. 20-21
*200V 4A pkg:TO-220 2,3,1
.SUBCKT Q2004L3  1  2  3
*     TERMINALS: MT2 G MT1
QN1  5 4 3  NOUT OFF
QN2 11 6 7  NOUT OFF
QP1 6 11 3  POUT OFF
QP2  4 5 7  POUT OFF
DF  4  5  DZ OFF
DR  6 11  DZ OFF
RF  4 6  4MEG
RT2 1 7  0.175
RH  7 6  187
RGP 8 3  54.9
RG  2 8  154
RS  8 4  213
DN  9 2  DIN OFF
RN  9 3  248
GNN  6 7 9 3 1.92M
GNP  4 5 9 3 965U
DP 2 10  DIP OFF
RP 10 3  2K
GP  7 6 10 3 977U
.MODEL DIN  D (IS=21.4F)
.MODEL DIP  D (IS=21.4F N=1.5)
.MODEL DZ   D (IS=21.4F N=1.5 IBV=50U BV=200)
.MODEL POUT PNP (IS=21.4F BF=5 CJE=93.8P TF=63.8U)
.MODEL NOUT NPN (IS=21.4F BF=20 CJE=93.8P CJC=18.8P TF=4.25U)
.ENDS Q2004L3

*===========================================
* Q4004L3 MCE 3-7-97
* Ref: Teccor Electornics, Inc. General Catalog 95/96 pg. 20-21
*400V 4A pkg:TO-220 2,3,1
.SUBCKT Q4004L3  1  2  3
*     TERMINALS: MT2 G MT1
QN1  5 4 3  NOUT OFF
QN2 11 6 7  NOUT OFF
QP1 6 11 3  POUT OFF
QP2  4 5 7  POUT OFF
DF  4  5  DZ OFF
DR  6 11  DZ OFF
RF  4 6  8MEG
RT2 1 7  0.175
RH  7 6  187
RGP 8 3  54.9
RG  2 8  154
RS  8 4  213
DN  9 2  DIN OFF
RN  9 3  248
GNN  6 7 9 3 1.92M
GNP  4 5 9 3 965U
DP 2 10  DIP OFF
RP 10 3  2K
GP  7 6 10 3 977U
.MODEL DIN  D (IS=21.4F)
.MODEL DIP  D (IS=21.4F N=1.5)
.MODEL DZ   D (IS=21.4F N=1.5 IBV=50U BV=400)
.MODEL POUT PNP (IS=21.4F BF=5 CJE=93.8P TF=63.8U)
.MODEL NOUT NPN (IS=21.4F BF=20 CJE=93.8P CJC=18.8P TF=4.25U)
.ENDS Q4004L3

*===========================================
* Q5004L3 MCE 3-7-97
* Ref: Teccor Electornics, Inc. General Catalog 95/96 pg. 20-21
*500V 4A pkg:TO-220 2,3,1
.SUBCKT Q5004L3  1  2  3
*     TERMINALS: MT2 G MT1
QN1  5 4 3  NOUT OFF
QN2 11 6 7  NOUT OFF
QP1 6 11 3  POUT OFF
QP2  4 5 7  POUT OFF
DF  4  5  DZ OFF
DR  6 11  DZ OFF
RF  4 6  10MEG
RT2 1 7  0.175
RH  7 6  187
RGP 8 3  54.9
RG  2 8  154
RS  8 4  213
DN  9 2  DIN OFF
RN  9 3  248
GNN  6 7 9 3 1.92M
GNP  4 5 9 3 965U
DP 2 10  DIP OFF
RP 10 3  2K
GP  7 6 10 3 977U
.MODEL DIN  D (IS=21.4F)
.MODEL DIP  D (IS=21.4F N=1.5)
.MODEL DZ   D (IS=21.4F N=1.5 IBV=50U BV=500)
.MODEL POUT PNP (IS=21.4F BF=5 CJE=93.8P TF=63.8U)
.MODEL NOUT NPN (IS=21.4F BF=20 CJE=93.8P CJC=18.8P TF=4.25U)
.ENDS Q5004L3

*===========================================
* Q6004L3 MCE 3-7-97
* Ref: Teccor Electornics, Inc. General Catalog 95/96 pg. 20-21
*600V 4A pkg:TO-220 2,3,1
.SUBCKT Q6004L3  1  2  3
*     TERMINALS: MT2 G MT1
QN1  5 4 3  NOUT OFF
QN2 11 6 7  NOUT OFF
QP1 6 11 3  POUT OFF
QP2  4 5 7  POUT OFF
DF  4  5  DZ OFF
DR  6 11  DZ OFF
RF  4 6  12MEG
RT2 1 7  0.175
RH  7 6  187
RGP 8 3  54.9
RG  2 8  154
RS  8 4  213
DN  9 2  DIN OFF
RN  9 3  248
GNN  6 7 9 3 1.92M
GNP  4 5 9 3 965U
DP 2 10  DIP OFF
RP 10 3  2K
GP  7 6 10 3 977U
.MODEL DIN  D (IS=21.4F)
.MODEL DIP  D (IS=21.4F N=1.5)
.MODEL DZ   D (IS=21.4F N=1.5 IBV=50U BV=600)
.MODEL POUT PNP (IS=21.4F BF=5 CJE=93.8P TF=63.8U)
.MODEL NOUT NPN (IS=21.4F BF=20 CJE=93.8P CJC=18.8P TF=4.25U)
.ENDS Q6004L3

*===========================================
* Q2004L4 MCE 3-7-97
* Ref: Teccor Electornics, Inc. General Catalog 95/96 pg. 20-21
*200V 4A pkg:TO-220 2,3,1
.SUBCKT Q2004L4  1  2  3
*     TERMINALS: MT2 G MT1
QN1  5 4 3  NOUT OFF
QN2 11 6 7  NOUT OFF
QP1 6 11 3  POUT OFF
QP2  4 5 7  POUT OFF
DF  4  5  DZ OFF
DR  6 11  DZ OFF
RF  4 6  4MEG
RT2 1 7  0.175
RH  7 6  187
RGP 8 3  22.2
RG  2 8  83.6
RS  8 4  246
DN  9 2  DIN OFF
RN  9 3  138
GNN  6 7 9 3 1.37M
GNP  4 5 9 3 655U
DP 2 10  DIP OFF
RP 10 3  1K
GP  7 6 10 3 673U
.MODEL DIN  D (IS=21.4F)
.MODEL DIP  D (IS=21.4F N=1.5)
.MODEL DZ   D (IS=21.4F N=1.5 IBV=50U BV=200)
.MODEL POUT PNP (IS=21.4F BF=5 CJE=93.8P TF=76.5U)
.MODEL NOUT NPN (IS=21.4F BF=20 CJE=93.8P CJC=18.8P TF=5.1U)
.ENDS Q2004L4

*===========================================
* Q4004L4 MCE 3-7-97
* Ref: Teccor Electornics, Inc. General Catalog 95/96 pg. 20-21
*400V 4A pkg:TO-220 2,3,1
.SUBCKT Q4004L4  1  2  3
*     TERMINALS: MT2 G MT1
QN1  5 4 3  NOUT OFF
QN2 11 6 7  NOUT OFF
QP1 6 11 3  POUT OFF
QP2  4 5 7  POUT OFF
DF  4  5  DZ OFF
DR  6 11  DZ OFF
RF  4 6  8MEG
RT2 1 7  0.175
RH  7 6  187
RGP 8 3  22.2
RG  2 8  83.6
RS  8 4  246
DN  9 2  DIN OFF
RN  9 3  138
GNN  6 7 9 3 1.37M
GNP  4 5 9 3 655U
DP 2 10  DIP OFF
RP 10 3  1K
GP  7 6 10 3 673U
.MODEL DIN  D (IS=21.4F)
.MODEL DIP  D (IS=21.4F N=1.5)
.MODEL DZ   D (IS=21.4F N=1.5 IBV=50U BV=400)
.MODEL POUT PNP (IS=21.4F BF=5 CJE=93.8P TF=76.5U)
.MODEL NOUT NPN (IS=21.4F BF=20 CJE=93.8P CJC=18.8P TF=5.1U)
.ENDS Q4004L4

*===========================================
* Q5004L4 MCE 3-7-97
* Ref: Teccor Electornics, Inc. General Catalog 95/96 pg. 20-21
*500V 4A pkg:TO-220 2,3,1
.SUBCKT Q5004L4  1  2  3
*     TERMINALS: MT2 G MT1
QN1  5 4 3  NOUT OFF
QN2 11 6 7  NOUT OFF
QP1 6 11 3  POUT OFF
QP2  4 5 7  POUT OFF
DF  4  5  DZ OFF
DR  6 11  DZ OFF
RF  4 6  10MEG
RT2 1 7  0.175
RH  7 6  187
RGP 8 3  22.2
RG  2 8  83.6
RS  8 4  246
DN  9 2  DIN OFF
RN  9 3  138
GNN  6 7 9 3 1.37M
GNP  4 5 9 3 655U
DP 2 10  DIP OFF
RP 10 3  1K
GP  7 6 10 3 673U
.MODEL DIN  D (IS=21.4F)
.MODEL DIP  D (IS=21.4F N=1.5)
.MODEL DZ   D (IS=21.4F N=1.5 IBV=50U BV=500)
.MODEL POUT PNP (IS=21.4F BF=5 CJE=93.8P TF=76.5U)
.MODEL NOUT NPN (IS=21.4F BF=20 CJE=93.8P CJC=18.8P TF=5.1U)
.ENDS Q5004L4

*===========================================
* Q6004L4 MCE 3-7-97
* Ref: Teccor Electornics, Inc. General Catalog 95/96 pg. 20-21
*600V 4A pkg:TO-220 2,3,1
.SUBCKT Q6004L4  1  2  3
*     TERMINALS: MT2 G MT1
QN1  5 4 3  NOUT OFF
QN2 11 6 7  NOUT OFF
QP1 6 11 3  POUT OFF
QP2  4 5 7  POUT OFF
DF  4  5  DZ OFF
DR  6 11  DZ OFF
RF  4 6  12MEG
RT2 1 7  0.175
RH  7 6  187
RGP 8 3  22.2
RG  2 8  83.6
RS  8 4  246
DN  9 2  DIN OFF
RN  9 3  138
GNN  6 7 9 3 1.37M
GNP  4 5 9 3 655U
DP 2 10  DIP OFF
RP 10 3  1K
GP  7 6 10 3 673U
.MODEL DIN  D (IS=21.4F)
.MODEL DIP  D (IS=21.4F N=1.5)
.MODEL DZ   D (IS=21.4F N=1.5 IBV=50U BV=600)
.MODEL POUT PNP (IS=21.4F BF=5 CJE=93.8P TF=76.5U)
.MODEL NOUT NPN (IS=21.4F BF=20 CJE=93.8P CJC=18.8P TF=5.1U)
.ENDS Q6004L4

*===========================================
* Q7004L4 MCE 3-7-97
* Ref: Teccor Electornics, Inc. General Catalog 95/96 pg. 20-21
*700V 4A pkg:TO-220 2,3,1
.SUBCKT Q7004L4  1  2  3
*     TERMINALS: MT2 G MT1
QN1  5 4 3  NOUT OFF
QN2 11 6 7  NOUT OFF
QP1 6 11 3  POUT OFF
QP2  4 5 7  POUT OFF
DF  4  5  DZ OFF
DR  6 11  DZ OFF
RF  4 6  14MEG
RT2 1 7  0.175
RH  7 6  187
RGP 8 3  22.2
RG  2 8  83.6
RS  8 4  246
DN  9 2  DIN OFF
RN  9 3  138
GNN  6 7 9 3 1.37M
GNP  4 5 9 3 655U
DP 2 10  DIP OFF
RP 10 3  1K
GP  7 6 10 3 673U
.MODEL DIN  D (IS=21.4F)
.MODEL DIP  D (IS=21.4F N=1.5)
.MODEL DZ   D (IS=21.4F N=1.5 IBV=50U BV=700)
.MODEL POUT PNP (IS=21.4F BF=5 CJE=93.8P TF=76.5U)
.MODEL NOUT NPN (IS=21.4F BF=20 CJE=93.8P CJC=18.8P TF=5.1U)
.ENDS Q7004L4

*===========================================
* Q8004L4 MCE 3-7-97
* Ref: Teccor Electornics, Inc. General Catalog 95/96 pg. 20-21
*800V 4A pkg:TO-220 2,3,1
.SUBCKT Q8004L4  1  2  3
*     TERMINALS: MT2 G MT1
QN1  5 4 3  NOUT OFF
QN2 11 6 7  NOUT OFF
QP1 6 11 3  POUT OFF
QP2  4 5 7  POUT OFF
DF  4  5  DZ OFF
DR  6 11  DZ OFF
RF  4 6  16MEG
RT2 1 7  0.175
RH  7 6  187
RGP 8 3  22.2
RG  2 8  83.6
RS  8 4  246
DN  9 2  DIN OFF
RN  9 3  138
GNN  6 7 9 3 1.37M
GNP  4 5 9 3 655U
DP 2 10  DIP OFF
RP 10 3  1K
GP  7 6 10 3 673U
.MODEL DIN  D (IS=21.4F)
.MODEL DIP  D (IS=21.4F N=1.5)
.MODEL DZ   D (IS=21.4F N=1.5 IBV=50U BV=800)
.MODEL POUT PNP (IS=21.4F BF=5 CJE=93.8P TF=76.5U)
.MODEL NOUT NPN (IS=21.4F BF=20 CJE=93.8P CJC=18.8P TF=5.1U)
.ENDS Q8004L4

*===========================================
* Q2006L4 MCE 3-7-97
* Ref: Teccor Electornics, Inc. General Catalog 95/96 pg. 20-21
*200V 6A pkg:TO-220 2,3,1
.SUBCKT Q2006L4  1  2  3
*     TERMINALS: MT2 G MT1
QN1  5 4 3  NOUT OFF
QN2 11 6 7  NOUT OFF
QP1 6 11 3  POUT OFF
QP2  4 5 7  POUT OFF
DF  4  5  DZ OFF
DR  6 11  DZ OFF
RF  4 6  4MEG
RT2 1 7  0.117
RH  7 6  125
RGP 8 3  32.7
RG  2 8  123
RS  8 4  146
DN  9 2  DIN OFF
RN  9 3  203
GNN  6 7 9 3 2.06M
GNP  4 5 9 3 1M
DP 2 10  DIP OFF
RP 10 3  1.47K
GP  7 6 10 3 1.01M
.MODEL DIN  D (IS=32.1F)
.MODEL DIP  D (IS=32.1F N=1.5)
.MODEL DZ   D (IS=32.1F N=1.5 IBV=50U BV=200)
.MODEL POUT PNP (IS=32.1F BF=5 CJE=141P TF=76.5U)
.MODEL NOUT NPN (IS=32.1F BF=20 CJE=141P CJC=28.1P TF=5.1U)
.ENDS Q2006L4

*===========================================
* Q4006L4 MCE 3-7-97
* Ref: Teccor Electornics, Inc. General Catalog 95/96 pg. 20-21
*400V 6A pkg:TO-220 2,3,1
.SUBCKT Q4006L4  1  2  3
*     TERMINALS: MT2 G MT1
QN1  5 4 3  NOUT OFF
QN2 11 6 7  NOUT OFF
QP1 6 11 3  POUT OFF
QP2  4 5 7  POUT OFF
DF  4  5  DZ OFF
DR  6 11  DZ OFF
RF  4 6  8MEG
RT2 1 7  0.117
RH  7 6  125
RGP 8 3  32.7
RG  2 8  123
RS  8 4  146
DN  9 2  DIN OFF
RN  9 3  203
GNN  6 7 9 3 2.06M
GNP  4 5 9 3 1M
DP 2 10  DIP OFF
RP 10 3  1.47K
GP  7 6 10 3 1.01M
.MODEL DIN  D (IS=32.1F)
.MODEL DIP  D (IS=32.1F N=1.5)
.MODEL DZ   D (IS=32.1F N=1.5 IBV=50U BV=400)
.MODEL POUT PNP (IS=32.1F BF=5 CJE=141P TF=76.5U)
.MODEL NOUT NPN (IS=32.1F BF=20 CJE=141P CJC=28.1P TF=5.1U)
.ENDS Q4006L4

*===========================================
* Q5006L4 MCE 3-7-97
* Ref: Teccor Electornics, Inc. General Catalog 95/96 pg. 20-21
*500V 6A pkg:TO-220 2,3,1
.SUBCKT Q5006L4  1  2  3
*     TERMINALS: MT2 G MT1
QN1  5 4 3  NOUT OFF
QN2 11 6 7  NOUT OFF
QP1 6 11 3  POUT OFF
QP2  4 5 7  POUT OFF
DF  4  5  DZ OFF
DR  6 11  DZ OFF
RF  4 6  10MEG
RT2 1 7  0.117
RH  7 6  125
RGP 8 3  32.7
RG  2 8  123
RS  8 4  146
DN  9 2  DIN OFF
RN  9 3  203
GNN  6 7 9 3 2.06M
GNP  4 5 9 3 1M
DP 2 10  DIP OFF
RP 10 3  1.47K
GP  7 6 10 3 1.01M
.MODEL DIN  D (IS=32.1F)
.MODEL DIP  D (IS=32.1F N=1.5)
.MODEL DZ   D (IS=32.1F N=1.5 IBV=50U BV=500)
.MODEL POUT PNP (IS=32.1F BF=5 CJE=141P TF=76.5U)
.MODEL NOUT NPN (IS=32.1F BF=20 CJE=141P CJC=28.1P TF=5.1U)
.ENDS Q5006L4

*===========================================
* Q6006L5 MCE 3-7-97
* Ref: Teccor Electornics, Inc. General Catalog 95/96 pg. 20-21
*600V 6A pkg:TO-220 2,3,1
.SUBCKT Q6006L5  1  2  3
*     TERMINALS: MT2 G MT1
QN1  5 4 3  NOUT OFF
QN2 11 6 7  NOUT OFF
QP1 6 11 3  POUT OFF
QP2  4 5 7  POUT OFF
DF  4  5  DZ OFF
DR  6 11  DZ OFF
RF  4 6  12MEG
RT2 1 7  0.117
RH  7 6  125
RGP 8 3  19.8
RG  2 8  74.6
RS  8 4  159
DN  9 2  DIN OFF
RN  9 3  123
GNN  6 7 9 3 2.06M
GNP  4 5 9 3 989U
DP 2 10  DIP OFF
RP 10 3  893
GP  7 6 10 3 1.01M
.MODEL DIN  D (IS=32.1F)
.MODEL DIP  D (IS=32.1F N=1.5)
.MODEL DZ   D (IS=32.1F N=1.5 IBV=50U BV=600)
.MODEL POUT PNP (IS=32.1F BF=5 CJE=141P TF=76.5U)
.MODEL NOUT NPN (IS=32.1F BF=20 CJE=141P CJC=28.1P TF=5.1U)
.ENDS Q6006L5

*===========================================
* Q7006L5 MCE 3-7-97
* Ref: Teccor Electornics, Inc. General Catalog 95/96 pg. 20-21
*700V 6A pkg:TO-220 2,3,1
.SUBCKT Q7006L5  1  2  3
*     TERMINALS: MT2 G MT1
QN1  5 4 3  NOUT OFF
QN2 11 6 7  NOUT OFF
QP1 6 11 3  POUT OFF
QP2  4 5 7  POUT OFF
DF  4  5  DZ OFF
DR  6 11  DZ OFF
RF  4 6  14MEG
RT2 1 7  0.117
RH  7 6  125
RGP 8 3  19.8
RG  2 8  74.6
RS  8 4  159
DN  9 2  DIN OFF
RN  9 3  123
GNN  6 7 9 3 2.06M
GNP  4 5 9 3 989U
DP 2 10  DIP OFF
RP 10 3  893
GP  7 6 10 3 1.01M
.MODEL DIN  D (IS=32.1F)
.MODEL DIP  D (IS=32.1F N=1.5)
.MODEL DZ   D (IS=32.1F N=1.5 IBV=50U BV=700)
.MODEL POUT PNP (IS=32.1F BF=5 CJE=141P TF=76.5U)
.MODEL NOUT NPN (IS=32.1F BF=20 CJE=141P CJC=28.1P TF=5.1U)
.ENDS Q7006L5

*===========================================
* Q8006L5 MCE 3-7-97
* Ref: Teccor Electornics, Inc. General Catalog 95/96 pg. 20-21
*800V 6A pkg:TO-220 2,3,1
.SUBCKT Q8006L5  1  2  3
*     TERMINALS: MT2 G MT1
QN1  5 4 3  NOUT OFF
QN2 11 6 7  NOUT OFF
QP1 6 11 3  POUT OFF
QP2  4 5 7  POUT OFF
DF  4  5  DZ OFF
DR  6 11  DZ OFF
RF  4 6  16MEG
RT2 1 7  0.117
RH  7 6  125
RGP 8 3  19.8
RG  2 8  74.6
RS  8 4  159
DN  9 2  DIN OFF
RN  9 3  123
GNN  6 7 9 3 2.06M
GNP  4 5 9 3 989U
DP 2 10  DIP OFF
RP 10 3  893
GP  7 6 10 3 1.01M
.MODEL DIN  D (IS=32.1F)
.MODEL DIP  D (IS=32.1F N=1.5)
.MODEL DZ   D (IS=32.1F N=1.5 IBV=50U BV=800)
.MODEL POUT PNP (IS=32.1F BF=5 CJE=141P TF=76.5U)
.MODEL NOUT NPN (IS=32.1F BF=20 CJE=141P CJC=28.1P TF=5.1U)
.ENDS Q8006L5

*===========================================
* Q2008L4 MCE 3-7-97
* Ref: Teccor Electornics, Inc. General Catalog 95/96 pg. 20-21
*200V 8A pkg:TO-220 2,3,1
.SUBCKT Q2008L4  1  2  3
*     TERMINALS: MT2 G MT1
QN1  5 4 3  NOUT OFF
QN2 11 6 7  NOUT OFF
QP1 6 11 3  POUT OFF
QP2  4 5 7  POUT OFF
DF  4  5  DZ OFF
DR  6 11  DZ OFF
RF  4 6  4MEG
RT2 1 7  87.5M
RH  7 6  93.7
RGP 8 3  32.7
RG  2 8  123
RS  8 4  101
DN  9 2  DIN OFF
RN  9 3  203
GNN  6 7 9 3 2.75M
GNP  4 5 9 3 1.36M
DP 2 10  DIP OFF
RP 10 3  1.47K
GP  7 6 10 3 1.35M
.MODEL DIN  D (IS=42.8F)
.MODEL DIP  D (IS=42.8F N=1.5)
.MODEL DZ   D (IS=42.8F N=1.5 IBV=50U BV=200)
.MODEL POUT PNP (IS=42.8F BF=5 CJE=188P TF=76.5U)
.MODEL NOUT NPN (IS=42.8F BF=20 CJE=188P CJC=37.5P TF=5.1U)
.ENDS Q2008L4

*===========================================
* Q4008L4 MCE 3-7-97
* Ref: Teccor Electornics, Inc. General Catalog 95/96 pg. 20-21
*400V 8A pkg:TO-220 2,3,1
.SUBCKT Q4008L4  1  2  3
*     TERMINALS: MT2 G MT1
QN1  5 4 3  NOUT OFF
QN2 11 6 7  NOUT OFF
QP1 6 11 3  POUT OFF
QP2  4 5 7  POUT OFF
DF  4  5  DZ OFF
DR  6 11  DZ OFF
RF  4 6  8MEG
RT2 1 7  87.5M
RH  7 6  93.7
RGP 8 3  32.7
RG  2 8  123
RS  8 4  101
DN  9 2  DIN OFF
RN  9 3  203
GNN  6 7 9 3 2.75M
GNP  4 5 9 3 1.36M
DP 2 10  DIP OFF
RP 10 3  1.47K
GP  7 6 10 3 1.35M
.MODEL DIN  D (IS=42.8F)
.MODEL DIP  D (IS=42.8F N=1.5)
.MODEL DZ   D (IS=42.8F N=1.5 IBV=50U BV=400)
.MODEL POUT PNP (IS=42.8F BF=5 CJE=188P TF=76.5U)
.MODEL NOUT NPN (IS=42.8F BF=20 CJE=188P CJC=37.5P TF=5.1U)
.ENDS Q4008L4

*===========================================
* Q5008L4 MCE 3-7-97
* Ref: Teccor Electornics, Inc. General Catalog 95/96 pg. 20-21
*500V 8A pkg:TO-220 2,3,1
.SUBCKT Q5008L4  1  2  3
*     TERMINALS: MT2 G MT1
QN1  5 4 3  NOUT OFF
QN2 11 6 7  NOUT OFF
QP1 6 11 3  POUT OFF
QP2  4 5 7  POUT OFF
DF  4  5  DZ OFF
DR  6 11  DZ OFF
RF  4 6  10MEG
RT2 1 7  87.5M
RH  7 6  93.7
RGP 8 3  32.7
RG  2 8  123
RS  8 4  101
DN  9 2  DIN OFF
RN  9 3  203
GNN  6 7 9 3 2.75M
GNP  4 5 9 3 1.36M
DP 2 10  DIP OFF
RP 10 3  1.47K
GP  7 6 10 3 1.35M
.MODEL DIN  D (IS=42.8F)
.MODEL DIP  D (IS=42.8F N=1.5)
.MODEL DZ   D (IS=42.8F N=1.5 IBV=50U BV=500)
.MODEL POUT PNP (IS=42.8F BF=5 CJE=188P TF=76.5U)
.MODEL NOUT NPN (IS=42.8F BF=20 CJE=188P CJC=37.5P TF=5.1U)
.ENDS Q5008L4

*===========================================
* Q6008L5 MCE 3-7-97
* Ref: Teccor Electornics, Inc. General Catalog 95/96 pg. 20-21
*600V 8A pkg:TO-220 2,3,1
.SUBCKT Q6008L5  1  2  3
*     TERMINALS: MT2 G MT1
QN1  5 4 3  NOUT OFF
QN2 11 6 7  NOUT OFF
QP1 6 11 3  POUT OFF
QP2  4 5 7  POUT OFF
DF  4  5  DZ OFF
DR  6 11  DZ OFF
RF  4 6  12MEG
RT2 1 7  87.5M
RH  7 6  93.7
RGP 8 3  19.8
RG  2 8  74.6
RS  8 4  114
DN  9 2  DIN OFF
RN  9 3  123
GNN  6 7 9 3 2.75M
GNP  4 5 9 3 1.33M
DP 2 10  DIP OFF
RP 10 3  893
GP  7 6 10 3 1.35M
.MODEL DIN  D (IS=42.8F)
.MODEL DIP  D (IS=42.8F N=1.5)
.MODEL DZ   D (IS=42.8F N=1.5 IBV=50U BV=600)
.MODEL POUT PNP (IS=42.8F BF=5 CJE=188P TF=76.5U)
.MODEL NOUT NPN (IS=42.8F BF=20 CJE=188P CJC=37.5P TF=5.1U)
.ENDS Q6008L5

*===========================================
* Q7008L5 MCE 3-7-97
* Ref: Teccor Electornics, Inc. General Catalog 95/96 pg. 20-21
*700V 8A pkg:TO-220 2,3,1
.SUBCKT Q7008L5  1  2  3
*     TERMINALS: MT2 G MT1
QN1  5 4 3  NOUT OFF
QN2 11 6 7  NOUT OFF
QP1 6 11 3  POUT OFF
QP2  4 5 7  POUT OFF
DF  4  5  DZ OFF
DR  6 11  DZ OFF
RF  4 6  14MEG
RT2 1 7  87.5M
RH  7 6  93.7
RGP 8 3  19.8
RG  2 8  74.6
RS  8 4  114
DN  9 2  DIN OFF
RN  9 3  123
GNN  6 7 9 3 2.75M
GNP  4 5 9 3 1.33M
DP 2 10  DIP OFF
RP 10 3  893
GP  7 6 10 3 1.35M
.MODEL DIN  D (IS=42.8F)
.MODEL DIP  D (IS=42.8F N=1.5)
.MODEL DZ   D (IS=42.8F N=1.5 IBV=50U BV=700)
.MODEL POUT PNP (IS=42.8F BF=5 CJE=188P TF=76.5U)
.MODEL NOUT NPN (IS=42.8F BF=20 CJE=188P CJC=37.5P TF=5.1U)
.ENDS Q7008L5

*===========================================
* Q8008L5 MCE 3-7-97
* Ref: Teccor Electornics, Inc. General Catalog 95/96 pg. 20-21
*800V 8A pkg:TO-220 2,3,1
.SUBCKT Q8008L5  1  2  3
*     TERMINALS: MT2 G MT1
QN1  5 4 3  NOUT OFF
QN2 11 6 7  NOUT OFF
QP1 6 11 3  POUT OFF
QP2  4 5 7  POUT OFF
DF  4  5  DZ OFF
DR  6 11  DZ OFF
RF  4 6  16MEG
RT2 1 7  87.5M
RH  7 6  93.7
RGP 8 3  19.8
RG  2 8  74.6
RS  8 4  114
DN  9 2  DIN OFF
RN  9 3  123
GNN  6 7 9 3 2.75M
GNP  4 5 9 3 1.33M
DP 2 10  DIP OFF
RP 10 3  893
GP  7 6 10 3 1.35M
.MODEL DIN  D (IS=42.8F)
.MODEL DIP  D (IS=42.8F N=1.5)
.MODEL DZ   D (IS=42.8F N=1.5 IBV=50U BV=800)
.MODEL POUT PNP (IS=42.8F BF=5 CJE=188P TF=76.5U)
.MODEL NOUT NPN (IS=42.8F BF=20 CJE=188P CJC=37.5P TF=5.1U)
.ENDS Q8008L5
*===========================================


*Q2010L5 MCE 5-19-97
* Ref: Teccor Electornics, Inc. General Catalog 95/96
*200V 10A pkg:TO-220 2,3,1
.SUBCKT Q2010L5   1  2  3
*     TERMINALS: MT2 G MT1
QN1  5 4 3  NOUT OFF
QN2 11 6 7  NOUT OFF
QP1 6 11 3  POUT OFF
QP2  4 5 7  POUT OFF
DF  4  5  DZ OFF
DR  6 11  DZ OFF
RF  4 6  4MEG
RT2 1 7  70M
RH  7 6  15
RGP 8 3  11.1
RG  2 8  41.8
RS  8 4  10.3
DN  9 2  DIN OFF
RN  9 3  500
GNN  6 7 9 3 18.9M
GNP  4 5 9 3 4.46M
DP 2 10  DIP OFF
RP 10 3  500
GP  7 6 10 3 12.4M
.MODEL DIN  D (IS=267F)
.MODEL DIP  D (IS=267F N=1.5)
.MODEL DZ   D (IS=267F N=1.5 IBV=50U BV=200)
.MODEL POUT PNP (IS=267F BF=5 CJE=1.17N TF=25.5U)
.MODEL NOUT NPN (IS=267F BF=20 CJE=1.17N CJC=235P TF=1.7U)
.ENDS
**********
*Q4010L5 MCE 5-19-97
* Ref: Teccor Electornics, Inc. General Catalog 95/96
*400V 10A pkg:TO-220 2,3,1
.SUBCKT Q4010L5   1  2  3
*     TERMINALS: MT2 G MT1
QN1  5 4 3  NOUT OFF
QN2 11 6 7  NOUT OFF
QP1 6 11 3  POUT OFF
QP2  4 5 7  POUT OFF
DF  4  5  DZ OFF
DR  6 11  DZ OFF
RF  4 6  8MEG
RT2 1 7  70M
RH  7 6  15
RGP 8 3  11.1
RG  2 8  41.8
RS  8 4  10.3
DN  9 2  DIN OFF
RN  9 3  500
GNN  6 7 9 3 18.9M
GNP  4 5 9 3 4.46M
DP 2 10  DIP OFF
RP 10 3  500
GP  7 6 10 3 12.4M
.MODEL DIN  D (IS=267F)
.MODEL DIP  D (IS=267F N=1.5)
.MODEL DZ   D (IS=267F N=1.5 IBV=50U BV=400)
.MODEL POUT PNP (IS=267F BF=5 CJE=1.17N TF=25.5U)
.MODEL NOUT NPN (IS=267F BF=20 CJE=1.17N CJC=235P TF=1.7U)
.ENDS 
**********
*Q5010L5 MCE 5-19-97
* Ref: Teccor Electornics, Inc. General Catalog 95/96
*500V 10A pkg:TO-220 2,3,1
.SUBCKT Q5010L5   1  2  3
*     TERMINALS: MT2 G MT1
QN1  5 4 3  NOUT OFF
QN2 11 6 7  NOUT OFF
QP1 6 11 3  POUT OFF
QP2  4 5 7  POUT OFF
DF  4  5  DZ OFF
DR  6 11  DZ OFF
RF  4 6  10MEG
RT2 1 7  70M
RH  7 6  15
RGP 8 3  11.1
RG  2 8  41.8
RS  8 4  10.3
DN  9 2  DIN OFF
RN  9 3  500
GNN  6 7 9 3 18.9M
GNP  4 5 9 3 4.46M
DP 2 10  DIP OFF
RP 10 3  500
GP  7 6 10 3 12.4M
.MODEL DIN  D (IS=267F)