*====================================================
*LF441 OPERATIONAL AMPLIFIER "MACROMODEL" SUBCIRCUIT
*CONNECTIONS: 1=+In, 2=-In, 3=+V, 4=-V, 5=Out
.SUBCKT LF441  1 2 3 4 5
  C1   11 12 1.061E-12
  C2    6  7 5.000E-12
  CSS  10 99 4.000E-12
  DC    5 53 DX
  DE   54  5 DX
  DLP  90 91 DX
  DLN  92 90 DX
  DP    4  3 DX
  EGND 99  0 POLY(2) (3,0) (4,0) 0 .5 .5
  FB    7 99 POLY(5) VB VC VE VLP VLN 0 4.775E6 
  + -5E6 5E6 5E6 -5E6
  GA    6  0 11 12 125.7E-6
  GCM   0  6 10 99 6.298E-9
  ISS   3 10 DC 90.00E-6
  HLIM 90  0 VLIM 1K
  J1   11  2 10 JX
  J2   12  1 10 JX
  R2    6  9 100.0E3
  RD1   4 11 7.958E3
  RD2   4 12 7.958E3
  RO1   8  5 200
  RO2   7 99 100
  RP    3  4 285.7E3
  RSS  10 99 2.222E6
  VB    9  0 DC 0
  VC    3 53 DC 1
  VE   54  4 DC 1
  VLIM  7  8 DC 0
  VLP  91  0 DC 10
  VLN   0 92 DC 10
.MODEL DX D(IS=800.0E-18)
.MODEL JX PJF(IS=1.500E-12 BETA=175.5E-6 
+ VTO=-1)
.ENDS LF441
 
*====================================================
*LF442 OPERATIONAL AMPLIFIER "MACROMODEL" SUBCIRCUIT
*CONNECTIONS: 1=+In, 2=-In, 3=+V, 4=-V, 5=Out
.SUBCKT LF442  1 2 3 4 5
  C1   11 12 1.061E-12
  C2    6  7 5.000E-12
  CSS  10 99 4.000E-12
  DC    5 53 DX
  DE   54  5 DX
  DLP  90 91 DX
  DLN  92 90 DX
  DP    4  3 DX
  EGND 99  0 POLY(2) (3,0) (4,0) 0 .5 .5
  FB    7 99 POLY(5) VB VC VE VLP VLN 0 4.775E6 
  + -5E6 5E6 5E6 -5E6
  GA    6  0 11 12 125.7E-6
  GCM   0  6 10 99 6.298E-9
  ISS   3 10 DC 90.00E-6
  HLIM 90  0 VLIM 1K
  J1   11  2 10 JX
  J2   12  1 10 JX
  R2    6  9 100.0E3
  RD1   4 11 7.958E3
  RD2   4 12 7.958E3
  RO1   8  5 200
  RO2   7 99 100
  RP    3  4 285.7E3
  RSS  10 99 2.222E6
  VB    9  0 DC 0
  VC    3 53 DC 1
  VE   54  4 DC 1
  VLIM  7  8 DC 0
  VLP  91  0 DC 10
  VLN   0 92 DC 10
.MODEL DX D(IS=800.0E-18)
.MODEL JX PJF(IS=1.500E-12 BETA=175.5E-6 
+ VTO=-1)
.ENDS LF442
 
*====================================================
*LF444 OPERATIONAL AMPLIFIER "MACROMODEL" SUBCIRCUIT
*CONNECTIONS: 1=+In, 2=-In, 3=+V, 4=-V, 5=Out
.SUBCKT LF444  1 2 3 4 5
  C1   11 12 1.061E-12
  C2    6  7 5.000E-12
  CSS  10 99 4.000E-12
  DC    5 53 DX
  DE   54  5 DX
  DLP  90 91 DX
  DLN  92 90 DX
  DP    4  3 DX
  EGND 99  0 POLY(2) (3,0) (4,0) 0 .5 .5
  FB    7 99 POLY(5) VB VC VE VLP VLN 0 4.775E6 
  + -5E6 5E6 5E6 -5E6
  GA    6  0 11 12 125.7E-6
  GCM   0  6 10 99 6.298E-9
  ISS   3 10 DC 90.00E-6
  HLIM 90  0 VLIM 1K
  J1   11  2 10 JX
  J2   12  1 10 JX
  R2    6  9 100.0E3
  RD1   4 11 7.958E3
  RD2   4 12 7.958E3
  RO1   8  5 200
  RO2   7 99 100
  RP    3  4 285.7E3
  RSS  10 99 2.222E6
  VB    9  0 DC 0
  VC    3 53 DC 1
  VE   54  4 DC 1
  VLIM  7  8 DC 0
  VLP  91  0 DC 10
  VLN   0 92 DC 10
.MODEL DX D(IS=800.0E-18)
.MODEL JX PJF(IS=1.500E-12 BETA=175.5E-6 
+ VTO=-1)
.ENDS LF444
 
*====================================================
*LM11 OPERATIONAL AMPLIFIER  *"MACROMODEL" SUBCIRCUIT
*CONNECTIONS: 1=+In, 2=-In, 3=+V, 4=-V, 5=Out
.SUBCKT LM11     1 2 3 4 5
  C1   11 12 12.59E-12
  C2    6  7 28.00E-12
  DC    5 53 DX
  DE   54  5 DX
  DLP  90 91 DX
  DLN  92 90 DX
  DP    4  3 DX
  EGND 99  0 POLY(2) (3,0) (4,0) 0 .5 .5
  FB    7 99 POLY(5) VB VC VE VLP VLN 0 65.29E6 
  +-70E6 70E6 70E6 -70E6
  GA    6  0 11 12 122.5E-6
  GCM   0  6 10 99 38.74E-12
  IEE  10  4 DC 6.900E-6
  HLIM 90  0 VLIM 1K
  Q1   11  2 13 QX
  Q2   12  1 14 QX
  R2    6  9 100.0E3
  RC1   3 11 8.162E3
  RC2   3 12 8.162E3
  RE1  13 10 660.9
  RE2  14 10 660.9
  REE  10 99 28.99E6
  RO1   8  5 41
  RO2   7 99 41
  RP    3  4 102.4E3
  VB    9  0 DC 0
  VC    3 53 DC 2.65
  VE   54  4 DC 2.65
  VLIM  7  8 DC 0
  VLP  91  0 DC 10
  VLN   0 92 DC 10
.MODEL DX D(IS=800.0E-18)
.MODEL QX NPN(IS=800.0E-18 BF=202.9E3)
.ENDS LM11

*====================================================
*LM833 OPERATIONAL AMPLIFIER "MACROMODEL" SUBCIRCUIT
*CONNECTIONS: 1=+In, 2=-In, 3=+V, 4=-V, 5=Out
.SUBCKT LM833  1 2 3 4 5
  C1   11 12 3.501E-12
  C2    6  7 10.00E-12
  DC    5 53 DX
  DE   54  5 DX
  DLP  90 91 DX
  DLN  92 90 DX
  DP    4  3 DX
  EGND 99  0 POLY(2) (3,0) (4,0) 0 .5 .5
  FB    7 99 POLY(5) VB VC VE VLP VLN 0 27.96E6 
  + -30E6 30E6 30E6 -30E6
  GA    6  0 11 12 565.5E-6
  GCM   0  6 10 99 5.655E-9
  ISS  10  4 DC 70.00E-6
  HLIM 90  0 VLIM 1K
  J1   11  2 10 JX
  J2   12  1 10 JX
  R2    6  9 100.0E3
  RD1   3 11 1.768E3
  RD2   3 12 1.768E3
  RO1   8  5 10
  RO2   7 99 20
  RP    3  4 29.03E3
  RSS  10 99 2.857E6
  VB    9  0 DC 0
  VC    3 53 DC .9
  VE   54  4 DC .4
  VLIM  7  8 DC 0
  VLP  91  0 DC 30
  VLN   0 92 DC 30
.MODEL DX D(IS=800.0E-18)
.MODEL JX NJF(IS=150.0E-9 BETA=4.568E-3 
+ VTO=-1)
.ENDS LM833
 
*====================================================
*LM2904 OPERATIONAL AMPLIFIER "MACROMODEL" SUBCIRCUIT
*CONNECTIONS: 1=+In, 2=-In, 3=+V, 4=-V, 5=Out
.SUBCKT LM2904  1 2 3 4 5
  C1   11 12 3.000E-12
  C2    6  7 6.000E-12
  CEE  10 99 388.6E-15
  DC    5 53 DX
  DE   54  5 DX
  DLP  90 91 DX
  DLN  92 90 DX
  DP    4  3 DX
  EGND 99  0 POLY(2) (3,0) (4,0) 0 .5 .5
  FB    7 99 POLY(5) VB VC VE VLP VLN 0 48.23E6 
  + -50E6 50E6 50E6 -50E6
  GA    6  0 11 12 41.47E-6
  GCM   0  6 10 99 414.7E-12
  IEE   3 10 DC 2.543E-6
  HLIM 90  0 VLIM 1K
  Q1   11  2 13 QX
  Q2   12  1 14 QX
  R2    6  9 100.0E3
  RC1   4 11 24.11E3
  RC2   4 12 24.11E3
  RE1  13 10 3.043E3
  RE2  14 10 3.043E3
  REE  10 99 78.65E6
  RO1   8  5 50
  RO2   7 99 25
  RP    3  4 37.62E3
  VB    9  0 DC 0
  VC    3 53 DC 1.800
  VE   54  4 DC .88
  VLIM  7  8 DC 0
  VLP  91  0 DC 40
  VLN   0 92 DC 40
  DESD1  1  3 DX
  DESD2  2  3 DX
.MODEL DX D(IS=800.0E-18)
.MODEL QX PNP(IS=800.0E-18 BF=32.03)
.ENDS LM2904

*====================================================
*MC1536 OPERATIONAL AMPLIFIER "MACROMODEL" SUBCIRCUIT
*CONNECTIONS: 1=+In, 2=-In, 3=+V, 4=-V, 5=Out
.SUBCKT MC1536  1 2 3 4 5
  C1   11 12 18.00E-12
  C2    6  7 28.50E-12
  DC    5 53 DX
  DE   54  5 DX
  DLP  90 91 DX
  DLN  92 90 DX
  DP    4  3 DX
  EGND 99  0 POLY(2) (3,0) (4,0) 0 .5 .5
  FB    7 99 POLY(5) VB VC VE VLP VLN 0 2.653E6 
  +-3E6 3E6 3E6 -3E6
  GA    6  0 11 12 377.0E-6
  GCM   0  6 10 99 1.192E-9
  IEE  10  4 DC 60.02E-6
  HLIM 90  0 VLIM 1K
  Q1   11  2 13 QX
  Q2   12  1 14 QX
  R2    6  9 100.0E3
  RC1   3 11 2.653E3
  RC2   3 12 2.653E3
  RE1  13 10 1.790E3
  RE2  14 10 1.790E3
  REE  10 99 3.332E6
  RO1   8  5 500
  RO2   7 99 500
  RP    3  4 26.17E3
  VB    9  0 DC 0
  VC    3 53 DC 5.740
  VE   54  4 DC 5.740
  VLIM  7  8 DC 0
  VLP  91  0 DC 17
  VLN   0 92 DC 17
.MODEL DX D(IS=800.0E-18)
.MODEL QX NPN(IS=800.0E-18 BF=3.750E3)
.ENDS MC1536
 
*====================================================
*MC1747 OPERATIONAL AMPLIFIER "MACROMODEL" SUBCIRCUIT
*CONNECTIONS: 1=+In, 2=-In, 3=+V, 4=-V, 5=Out
.SUBCKT MC1747   1 2 3 4 5
  C1   11 12 10.50E-12
  C2    6  7 31.00E-12
  DC    5 53 DX
  DE   54  5 DX
  DLP  90 91 DX
  DLN  92 90 DX
  DP    4  3 DX
  EGND 99  0 POLY(2) (3,0) (4,0) 0 .5 .5
  FB    7 99 POLY(5) VB VC VE VLP VLN 0 23.81E6 -20E6 20E6 20E6 -20E6
  GA    6  0 11 12 224.0E-6
  GCM   0  6 10 99 7.083E-9
  IEE  10  4 DC 15.66E-6
  HLIM 90  0 VLIM 1K
  Q1   11  2 13 QX
  Q2   12  1 14 QX
  R2    6  9 100.0E3
  RC1   3 11 4.464E3
  RC2   3 12 4.464E3
  RE1  13 10 1.116E3
  RE2  14 10 1.116E3
  REE  10 99 12.77E6
  RO1   8  5 37.50
  RO2   7 99 37.50
  RP    3  4 18.17E3
  VB    9  0 DC 0
  VC    3 53 DC 2.6
  VE   54  4 DC 2.6
  VLIM  7  8 DC 0
  VLP  91  0 DC 25
  VLN   0 92 DC 25
.MODEL DX D(IS=800.0E-18)
.MODEL QX NPN(IS=800.0E-18 BF=96.87)
.ENDS MC1747

*====================================================
*MC3458 OPERATIONAL AMPLIFIER "MACROMODEL" SUBCIRCUIT
*CONNECTIONS: 1=+In, 2=-In, 3=+V, 4=-V, 5=Out
.SUBCKT MC3458   1 2 3 4 5
  C1   11 12 5.750E-12
  C2    6  7 12.50E-12
  DC    5 53 DX
  DE   54  5 DX
  DLP  90 91 DX
  DLN  92 90 DX
  DP    4  3 DX
  EGND 99  0 POLY(2) (3,0) (4,0) 0 .5 .5
  FB    7 99 POLY(5) VB VC VE VLP VLN 0 45.39E6
  + -50E6 50E6 50E6 -50E6
  GA    6  0 11 12 117.5E-6
  GCM   0  6 10 99 3.716E-9
  IEE   3 10 DC 7.000E-6
  HLIM 90  0 VLIM 1K
  Q1   11  2 13 QX
  Q2   12  1 14 QX
  R2    6  9 100.0E3
  RC1   4 11 8.511E3
  RC2   4 12 8.511E3
  RE1  13 10 634.9
  RE2  14 10 634.9
  REE  10 99 28.57E6
  RO1   8  5 37.50
  RO2   7 99 37.50
  RP    3  4 18.83E3
  VB    9  0 DC 0
  VC    3 53 DC 2.740
  VE   54  4 DC 2.740
  VLIM  7  8 DC 0
  VLP  91  0 DC 20
  VLN   0 92 DC 20
.MODEL DX D(IS=800.0E-18)
.MODEL QX PNP(IS=800.0E-18 BF=16.50)
.ENDS MC3458
 
*====================================================
*MC4558 OPERATIONAL AMPLIFIER "MACROMODEL" SUBCIRCUIT
*CONNECTIONS: 1=+In, 2=-In, 3=+V, 4=-V, 5=Out
.SUBCKT MC4558   1 2 3 4 5
  C1   11 12 4.201E-12
  C2    6  7 13.00E-12
  DC    5 53 DX
  DE   54  5 DX
  DLP  90 91 DX
  DLN  92 90 DX
  DP    4  3 DX
  EGND 99  0 POLY(2) (3,0) (4,0) 0 .5 .5
  FB    7 99 POLY(5) VB VC VE VLP VLN 0 16.58E6
  + -20E6 20E6 20E6 -20E6
  GA    6  0 11 12 301.6E-6
  GCM   0  6 10 99 9.537E-9
  IEE   3 10 DC 19.68E-6
  HLIM 90  0 VLIM 1K
  Q1   11  2 13 QX
  Q2   12  1 14 QX
  R2    6  9 100.0E3
  RC1   4 11 3.316E3
  RC2   4 12 3.316E3
  RE1  13 10 615.9
  RE2  14 10 615.9
  REE  10 99 10.32E6
  RO1   8  5 40
  RO2   7 99 40
  RP    3  4 13.15E3
  VB    9  0 DC 0
  VC    3 53 DC 2.600
  VE   54  4 DC 2.600
  VLIM  7  8 DC 0
  VLP  91  0 DC 20
  VLN   0 92 DC 20
.MODEL DX D(IS=800.0E-18)
.MODEL QX PNP(IS=800.0E-18 BF=109.1)
.ENDS MC4558

*====================================================
*MC4741 OPERATIONAL AMPLIFIER "MACROMODEL" SUBCIRCUIT
*CONNECTIONS: 1=+In, 2=-In, 3=+V, 4=-V, 5=Out
.SUBCKT MC4741   1 2 3 4 5
*
  C1   11 12 10.50E-12
  C2    6  7 31.00E-12
  DC    5 53 DX
  DE   54  5 DX
  DLP  90 91 DX
  DLN  92 90 DX
  DP    4  3 DX
  EGND 99  0 POLY(2) (3,0) (4,0) 0 .5 .5
  FB    7 99 POLY(5) VB VC VE VLP VLN 0 24.60E6 -20E6 20E6 20E6 -20E6
  GA    6  0 11 12 216.8E-6
  GCM   0  6 10 99 6.855E-9
  IEE  10  4 DC 15.16E-6
  HLIM 90  0 VLIM 1K
  Q1   11  2 13 QX
  Q2   12  1 14 QX
  R2    6  9 100.0E3
  RC1   3 11 4.613E3
  RC2   3 12 4.613E3
  RE1  13 10 1.152E3
  RE2  14 10 1.152E3
  REE  10 99 13.19E6
  RO1   8  5 37.50
  RO2   7 99 37.50
  RP    3  4 12.94E3
  VB    9  0 DC 0
  VC    3 53 DC 2.6
  VE   54  4 DC 2.6
  VLIM  7  8 DC 0
  VLP  91  0 DC 20
  VLN   0 92 DC 20
.MODEL DX D(IS=800.0E-18)
.MODEL QX NPN(IS=800.0E-18 BF=93.75)
.ENDS MC4741
 
*====================================================
*MC33071 OPERATIONAL AMPLIFIER "MACROMODEL" SUBCIRCUIT
*CONNECTIONS: 1=+In, 2=-In, 3=+V, 4=-V, 5=Out
.SUBCKT MC33071  1 2 3 4 5
  C1   11 12 8.660E-12
  C2    6  7 8.000E-12
  CEE  10 99 1.231E-12
  DC    5 53 DX
  DE   54  5 DX
  DLP  90 91 DX
  DLN  92 90 DX
  DP    4  3 DX
  EGND 99  0 POLY(2) (3,0) (4,0) 0 .5 .5
  FB    7 99 POLY(5) VB VC VE VLP VLN 0 8.842E6 
  + -9E6 9E6 9E6 -9E6
  GA    6  0 11 12 251.3E-6
  GCM   0  6 10 99 3.550E-9
  IEE   3 10 DC 120.2E-6
  HLIM 90  0 VLIM 1K
  Q1   11  2 13 QX
  Q2   12  1 14 QX
  R2    6  9 100.0E3
  RC1   4 11 3.979E3
  RC2   4 12 3.979E3
  RE1  13 10 3.542E3
  RE2  14 10 3.542E3
  REE  10 99 1.664E6
  RO1   8  5 30
  RO2   7 99 45
  RP    3  4 34.09E3
  VB    9  0 DC 0
  VC    3 53 DC 1
  VE   54  4 DC .3
  VLIM  7  8 DC 0
  VLP  91  0 DC 30
  VLN   0 92 DC 30
.MODEL DX D(IS=800.0E-18)
.MODEL QX PNP(IS=800.0E-18 BF=600)
.ENDS MC33071
 
*====================================================
*MC33072 OPERATIONAL AMPLIFIER "MACROMODEL" SUBCIRCUIT
*CREATED USING PARTS RELEASE 4.05
*CONNECTIONS: 1=+In, 2=-In, 3=+V, 4=-V, 5=Out
.SUBCKT MC33072  1 2 3 4 5
  C1   11 12 8.660E-12
  C2    6  7 8.000E-12
  CEE  10 99 1.231E-12
  DC    5 53 DX
  DE   54  5 DX
  DLP  90 91 DX
  DLN  92 90 DX
  DP    4  3 DX
  EGND 99  0 POLY(2) (3,0) (4,0) 0 .5 .5
  FB    7 99 POLY(5) VB VC VE VLP VLN 0 8.842E6 
  + -9E6 9E6 9E6 -9E6
  GA    6  0 11 12 251.3E-6
  GCM   0  6 10 99 3.550E-9
  IEE   3 10 DC 120.2E-6
  HLIM 90  0 VLIM 1K
  Q1   11  2 13 QX
  Q2   12  1 14 QX
  R2    6  9 100.0E3
  RC1   4 11 3.979E3
  RC2   4 12 3.979E3
  RE1  13 10 3.542E3
  RE2  14 10 3.542E3
  REE  10 99 1.664E6
  RO1   8  5 30
  RO2   7 99 45
  RP    3  4 34.09E3
  VB    9  0 DC 0
  VC    3 53 DC 1
  VE   54  4 DC .3
  VLIM  7  8 DC 0
  VLP  91  0 DC 30
  VLN   0 92 DC 30
  DESD1 1  3 DX
  DESD2 2  3 DX
.MODEL DX D(IS=800.0E-18)
.MODEL QX PNP(IS=800.0E-18 BF=600)
.ENDS MC33072
 
*====================================================
*MC33074 OPERATIONAL AMPLIFIER "MACROMODEL" SUBCIRCUIT
*CONNECTIONS: 1=+In, 2=-In, 3=+V, 4=-V, 5=Out
.SUBCKT MC33074  1 2 3 4 5
  C1   11 12 8.660E-12
  C2    6  7 8.000E-12
  CEE  10 99 1.231E-12
  DC    5 53 DX
  DE   54  5 DX
  DLP  90 91 DX
  DLN  92 90 DX
  DP    4  3 DX
  EGND 99  0 POLY(2) (3,0) (4,0) 0 .5 .5
  FB    7 99 POLY(5) VB VC VE VLP VLN 0 8.842E6 
  + -9E6 9E6 9E6 -9E6
  GA    6  0 11 12 251.3E-6
  GCM   0  6 10 99 3.550E-9
  IEE   3 10 DC 120.2E-6
  HLIM 90  0 VLIM 1K
  Q1   11  2 13 QX
  Q2   12  1 14 QX
  R2    6  9 100.0E3
  RC1   4 11 3.979E3
  RC2   4 12 3.979E3
  RE1  13 10 3.542E3
  RE2  14 10 3.542E3
  REE  10 99 1.664E6
  RO1   8  5 30
  RO2   7 99 45
  RP    3  4 34.09E3
  VB    9  0 DC 0
  VC    3 53 DC 1
  VE   54  4 DC .3
  VLIM  7  8 DC 0
  VLP  91  0 DC 30
  VLN   0 92 DC 30
  DESD1 1  3 DX
  DESD2 2  3 DX
.MODEL DX D(IS=800.0E-18)
.MODEL QX PNP(IS=800.0E-18 BF=600)
.ENDS MC33074
 
*====================================================
*MC33076 OPERATIONAL AMPLIFIER "MACROMODEL" SUBCIRCUIT
*CONNECTIONS: 1=+In, 2=-In, 3=+V, 4=-V, 5=Out
.SUBCKT MC33076  1 2 3 4 5
  C1   11 12 30.302E-12
  C2    6  7 18.00E-12
  DC  500 53 DX
  DE   54  500 DX
  DLP  90 91 DX
  DLN  92 90 DX
  DP    4  3 DX
  EGND 99  0 POLY(2) (3,0) (4,0) 0 .5 .5
  FB    7 99 POLY(5) VB VC VE VLP VLN 0 20.21E6 
  + -20E6 20E6 20E6 -20E6
  GA    6  0 11 12 395.8E-6
  GCM   0  6 10 99 627.4E-12
  IEE  10  4 DC 47.16E-6
  HLIM 90  0 VLIM 1K
  Q1   11  2 13 QX
  Q2   12  1 14 QX
  R2    6  9 100.0E3
  RC1   3 11 2.526E3
  RC2   3 12 2.526E3
  RE1  13 10 1.410E3
  RE2  14 10 1.410E3
  REE  10 99 4.241E6
  RO1   8  500 25
  RO2   7 99 25
  RP    3  4 13.93E3
  VB    9  0 DC 0
  VC    3 53 DC .92
  VE   54  4 DC .86
  VLIM  7  8 DC 0
  VLP  91  0 DC 250
  VLN   0 92 DC 250
  EVCS1  800  500  8  500 1.0
  EVCS2  500  820  810  500 1.0
  RVS1   800  810  75
  CVS    810  500  500P
  RVS2   820   5   50
  DESD1  1  3 DX
  DESD2  2  3 DX
.MODEL DX D(IS=800.0E-18)
.MODEL QX NPN(IS=800.0E-18 BF=130)
.ENDS MC33076
 
*====================================================
*MC33077 OPERATIONAL AMPLIFIER "MACROMODEL" SUBCIRCUIT
*CONNECTIONS: 1=+In, 2=-In, 3=+V, 4=-V, 5=Out
.SUBCKT MC33077  1 2 3 4 5
  C1   11 12 3.851E-12
  C2    6  7 9.50E-12
  DC    5 53 DX
  DE   54  5 DX
  DLP  90 91 DX
  DLN  92 90 DX
  DP    4  3 DX
  EGND 99  0 POLY(2) (3,0) (4,0) 0 .5 .5
  FB    7 99 POLY(5) VB VC VE VLP VLN 0 42.87E6
  + -40E6 40E6 40E6 -40E6
  GA    6  0 11 12 541.9E-6
  GCM   0  6 10 99 2.421E-9
  IEE   3 10 DC 104.1E-6
  HLIM 90  0 VLIM 1K
  Q1   11  2 13 QX
  Q2   12  1 14 QX
  R2    6  9 100.0E3
  RC1   4 11 1.845E3
  RC2   4 12 1.845E3
  RE1  13 10 1.338E3
  RE2  14 10 1.338E3
  REE  10 99 1.922E6
  RO1   8  5 18
  RO2   7 99 18
  RP    3  4 8.833E3
  VB    9  0 DC 0
  VC    3 53 DC 2.0
  VE   54  4 DC 1.5
  VLIM  7  8 DC 0
  VLP  91  0 DC 30
  VLN   0 92 DC 30
.MODEL DX D(IS=800.0E-18)
.MODEL QX PNP(IS=800.0E-18 BF=178.4)
.ENDS MC33077
 
*====================================================
*MC33078 OPERATIONAL AMPLIFIER "MACROMODEL" SUBCIRCUIT
*CONNECTIONS: 1=+In, 2=-In, 3=+V, 4=-V, 5=Out
.SUBCKT MC33078  1 2 3 4 5
  C1   11 12 3.501E-12
  C2    6  7 10.00E-12
  DC    5 53 DX
  DE   54  5 DX
  DLP  90 91 DX
  DLN  92 90 DX
  DP    4  3 DX
  EGND 99  0 POLY(2) (3,0) (4,0) 0 .5 .5
  FB    7 99 POLY(5) VB VC VE VLP VLN 0 27.96E6 
  + -30E6 30E6 30E6 -30E6
  GA    6  0 11 12 565.5E-6
  GCM   0  6 10 99 5.655E-9
  ISS  10  4 DC 70.00E-6
  HLIM 90  0 VLIM 1K
  J1   11  2 10 JX
  J2   12  1 10 JX
  R2    6  9 100.0E3
  RD1   3 11 1.768E3
  RD2   3 12 1.768E3
  RO1   8  5 10
  RO2   7 99 20
  RP    3  4 29.03E3
  RSS  10 99 2.857E6
  VB    9  0 DC 0
  VC    3 53 DC .9
  VE   54  4 DC .4
  VLIM  7  8 DC 0
  VLP  91  0 DC 30
  VLN   0 92 DC 30
.MODEL DX D(IS=800.0E-18)
.MODEL JX NJF(IS=150.0E-9 BETA=4.568E-3 
+ VTO=-1)
.ENDS MC33078
 
*====================================================
*MC33079 OPERATIONAL AMPLIFIER "MACROMODEL" SUBCIRCUIT
*CONNECTIONS: 1=+In, 2=-In, 3=+V, 4=-V, 5=Out
.SUBCKT MC33079  1 2 3 4 5
  C1   11 12 3.501E-12
  C2    6  7 10.00E-12
  DC    5 53 DX
  DE   54  5 DX
  DLP  90 91 DX
  DLN  92 90 DX
  DP    4  3 DX
  EGND 99  0 POLY(2) (3,0) (4,0) 0 .5 .5
  FB    7 99 POLY(5) VB VC VE VLP VLN 0 27.96E6 
  + -30E6 30E6 30E6 -30E6
  GA    6  0 11 12 565.5E-6
  GCM   0  6 10 99 5.655E-9
  ISS  10  4 DC 70.00E-6
  HLIM 90  0 VLIM 1K
  J1   11  2 10 JX
  J2   12  1 10 JX
  R2    6  9 100.0E3
  RD1   3 11 1.768E3
  RD2   3 12 1.768E3
  RO1   8  5 10
  RO2   7 99 20
  RP    3  4 29.03E3
  RSS  10 99 2.857E6
  VB    9  0 DC 0
  VC    3 53 DC .9
  VE   54  4 DC .4
  VLIM  7  8 DC 0
  VLP  91  0 DC 30
  VLN   0 92 DC 30
.MODEL DX D(IS=800.0E-18)
.MODEL JX NJF(IS=150.0E-9 BETA=4.568E-3 
+ VTO=-1)
.ENDS MC33079
 
*====================================================
*MC33171 OPERATIONAL AMPLIFIER "MACROMODEL" SUBCIRCUIT
*CONNECTIONS: 1=+In, 2=-In, 3=+V, 4=-V, 5=Out
.SUBCKT MC33171  1 2 3 4 5
  C1   11 12 8.660E-12
  C2    6  7 5.500E-12
  CEE  10 99 4.976E-12
  DC    5 53 DX
  DE   54  5 DX
  DLP  90 91 DX
  DLN  92 90 DX
  DP    4  3 DX
  EGND 99  0 POLY(2) (3,0) (4,0) 0 .5 .5
  FB    7 99 POLY(5) VB VC VE VLP VLN 0 89.31E6 
  + -90E6 90E6 90E6 -90E6
  GA    6  0 11 12 62.20E-6
  GCM   0  6 10 99 1.967E-9
  IEE   3 10 DC 22.04E-6
  HLIM 90  0 VLIM 1K
  Q1   11  2 13 QX
  Q2   12  1 14 QX
  R2    6  9 100.0E3
  RC1   4 11 16.08E3
  RC2   4 12 16.08E3
  RE1  13 10 13.70E3
  RE2  14 10 13.70E3
  REE  10 99 9.074E6
  RO1   8  5 110
  RO2   7 99 90
  RP    3  4 291.3E3
  VB    9  0 DC 0
  VC    3 53 DC .8
  VE   54  4 DC .8
  VLIM  7  8 DC 0
  VLP  91  0 DC 10
  VLN   0 92 DC 10
  DESD1  1  3 DX
  DESD2  2  3 DX
.MODEL DX D(IS=800.0E-18)
.MODEL QX PNP(IS=800.0E-18 BF=550)
.ENDS MC33171
 
*====================================================
*MC33172 OPERATIONAL AMPLIFIER "MACROMODEL" SUBCIRCUIT
*CONNECTIONS: 1=+In, 2=-In, 3=+V, 4=-V, 5=Out
.SUBCKT MC33172  1 2 3 4 5
  C1   11 12 8.660E-12
  C2    6  7 5.500E-12
  CEE  10 99 4.976E-12
  DC    5 53 DX
  DE   54  5 DX
  DLP  90 91 DX
  DLN  92 90 DX
  DP    4  3 DX
  EGND 99  0 POLY(2) (3,0) (4,0) 0 .5 .5
  FB    7 99 POLY(5) VB VC VE VLP VLN 0 89.31E6 
  + -90E6 90E6 90E6 -90E6
  GA    6  0 11 12 62.20E-6
  GCM   0  6 10 99 1.967E-9
  IEE   3 10 DC 22.04E-6
  HLIM 90  0 VLIM 1K
  Q1   11  2 13 QX
  Q2   12  1 14 QX
  R2    6  9 100.0E3
  RC1   4 11 16.08E3
  RC2   4 12 16.08E3
  RE1  13 10 13.70E3
  RE2  14 10 13.70E3
  REE  10 99 9.074E6
  RO1   8  5 110
  RO2   7 99 90
  RP    3  4 291.3E3
  VB    9  0 DC 0
  VC    3 53 DC .8
  VE   54  4 DC .8
  VLIM  7  8 DC 0
  VLP  91  0 DC 10
  VLN   0 92 DC 10
  DESD1  1  3 DX
  DESD2  2  3 DX
.MODEL DX D(IS=800.0E-18)
.MODEL QX PNP(IS=800.0E-18 BF=550)
.ENDS MC33172
 
*====================================================
*MC33174 OPERATIONAL AMPLIFIER "MACROMODEL" SUBCIRCUIT
*CONNECTIONS: 1=+In, 2=-In, 3=+V, 4=-V, 5=Out
.SUBCKT MC33174  1 2 3 4 5
  C1   11 12 8.660E-12
  C2    6  7 5.500E-12
  CEE  10 99 4.976E-12
  DC    5 53 DX
  DE   54  5 DX
  DLP  90 91 DX
  DLN  92 90 DX
  DP    4  3 DX
  EGND 99  0 POLY(2) (3,0) (4,0) 0 .5 .5
  FB    7 99 POLY(5) VB VC VE VLP VLN 0 89.31E6 
  + -90E6 90E6 90E6 -90E6
  GA    6  0 11 12 62.20E-6
  GCM   0  6 10 99 1.967E-9
  IEE   3 10 DC 22.04E-6
  HLIM 90  0 VLIM 1K
  Q1   11  2 13 QX
  Q2   12  1 14 QX
  R2    6  9 100.0E3
  RC1   4 11 16.08E3
  RC2   4 12 16.08E3
  RE1  13 10 13.70E3
  RE2  14 10 13.70E3
  REE  10 99 9.074E6
  RO1   8  5 110
  RO2   7 99 90
  RP    3  4 291.3E3
  VB    9  0 DC 0
  VC    3 53 DC .8
  VE   54  4 DC .8
  VLIM  7  8 DC 0
  VLP  91  0 DC 10
  VLN   0 92 DC 10
  DESD1  1  3 DX
  DESD2  2  3 DX
.MODEL DX D(IS=800.0E-18)
.MODEL QX PNP(IS=800.0E-18 BF=550)
.ENDS MC33174
 
*====================================================
*MC33178 OPERATIONAL AMPLIFIER "MACROMODEL" SUBCIRCUIT
*CONNECTIONS: 1=+In, 2=-In, 3=+V, 4=-V, 5=Out
.SUBCKT MC33178  1 2 3 4 5
  C1   11 12 8.660E-12
  C2    6  7 15.00E-12
  DC    5 53 DX
  DE   54  5 DX
  DLP  90 91 DX
  DLN  92 90 DX
  DP    4  3 DX
  EGND 99  0 POLY(2) (3,0) (4,0) 0 .5 .5
  FB    7 99 POLY(5) VB VC VE VLP VLN 0 17.68E6 
  + -20E6 20E6 20E6 -20E6
  GA    6  0 11 12 282.7E-6
  GCM   0  6 10 99 894.1E-12
  IEE   3 10 DC 30.20E-6
  HLIM 90  0 VLIM 1K
  Q1   11  2 13 QX
  Q2   12  1 14 QX
  R2    6  9 100.0E3
  RC1   4 11 3.537E3
  RC2   4 12 3.537E3
  RE1  13 10 1.800E3
  RE2  14 10 1.800E3
  REE  10 99 6.623E6
  RO1   8  5 60
  RO2   7 99 40
  RP    3  4 164.5E3
  VB    9  0 DC 0
  VC    3 53 DC 1
  VE   54  4 DC 1.200
  VLIM  7  8 DC 0
  VLP  91  0 DC 100
  VLN   0 92 DC 100
  DESD1  1  3 DX
  DESD2  2  3 DX
.MODEL DX D(IS=800.0E-18)
.MODEL QX PNP(IS=800.0E-18 BF=150)
.ENDS MC33178
 
*====================================================
*MC33179 OPERATIONAL AMPLIFIER "MACROMODEL" SUBCIRCUIT
*CONNECTIONS: 1=+In, 2=-In, 3=+V, 4=-V, 5=Out
.SUBCKT MC33179  1 2 3 4 5
  C1   11 12 2.887E-12
  C2    6  7 2.500E-12
  CEE  10 99 31.03E-15
  DC    5 53 DX
  DE   54  5 DX
  DLP  90 91 DX
  DLN  92 90 DX
  DP    4  3 DX
  EGND 99  0 POLY(2) (3,0) (4,0) 0 .5 .5
  FB    7 99 POLY(5) VB VC VE VLP VLN 0 84.88E6 
  + -80E6 80E6 80E6 -80E6
  GA    6  0 11 12 47.12E-6
  GCM   0  6 10 99 149.0E-12
  IEE  10  4 DC 5.293E-6
  HLIM 90  0 VLIM 1K
  Q1   11  2 13 QX
  Q2   12  1 14 QX
  R2    6  9 100.0E3
  RC1   3 11 21.22E3
  RC2   3 12 21.22E3
  RE1  13 10 10.66E3
  RE2  14 10 10.66E3
  REE  10 99 37.78E6
  RO1   8  5 50
  RO2   7 99 50
  RP    3  4 33.53E3
  VB    9  0 DC 0
  VC    3 53 DC 1
  VE   54  4 DC 1.200
  VLIM  7  8 DC 0
  VLP  91  0 DC 80
  VLN   0 92 DC 80
.MODEL DX D(IS=800.0E-18)
.MODEL QX NPN(IS=800.0E-18 BF=26.01)
.ENDS MC33179
 
*====================================================
*MC33181 OPERATIONAL AMPLIFIER "MACROMODEL" SUBCIRCUIT
*CONNECTIONS: 1=+In, 2=-In, 3=+V, 4=-V, 5=Out
.SUBCKT MC33181  1 2 3 4 5
   C1   11 12 1.061E-12
  C2    6  7 5.000E-12
  CSS  10 99 4.000E-12
  DC    5 53 DX
  DE   54  5 DX
  DLP  90 91 DX
  DLN  92 90 DX
  DP    4  3 DX
  EGND 99  0 POLY(2) (3,0) (4,0) 0 .5 .5
  FB    7 99 POLY(5) VB VC VE VLP VLN 0 4.775E6 
  + -5E6 5E6 5E6 -5E6
  GA    6  0 11 12 125.7E-6
  GCM   0  6 10 99 6.298E-9
  ISS   3 10 DC 90.00E-6
  HLIM 90  0 VLIM 1K
  J1   11  2 10 JX
  J2   12  1 10 JX
  R2    6  9 100.0E3
  RD1   4 11 7.958E3
  RD2   4 12 7.958E3
  RO1   8  5 100
  RO2   7 99 100
  RP    3  4 285.7E3
  RSS  10 99 2.222E6
  VB    9  0 DC 0
  VC    3 53 DC 1.66
  VE   54  4 DC 1.66
  VLIM  7  8 DC 0
  VLP  91  0 DC 10
  VLN   0 92 DC 10
.MODEL DX D(IS=800.0E-18)
.MODEL JX PJF(IS=1.500E-12 BETA=175.5E-6 
+ VTO=-1)
.ENDS MC33181
 
*====================================================
*MC33182 OPERATIONAL AMPLIFIER "MACROMODEL" SUBCIRCUIT
*CONNECTIONS: 1=+In, 2=-In, 3=+V, 4=-V, 5=Out
.SUBCKT MC33182  1 2 3 4 5
  C1   11 12 1.061E-12
  C2    6  7 5.000E-12
  CSS  10 99 4.000E-12
  DC    5 53 DX
  DE   54  5 DX
  DLP  90 91 DX
  DLN  92 90 DX
  DP    4  3 DX
  EGND 99  0 POLY(2) (3,0) (4,0) 0 .5 .5
  FB    7 99 POLY(5) VB VC VE VLP VLN 0 4.775E6 
  + -5E6 5E6 5E6 -5E6
  GA    6  0 11 12 125.7E-6
  GCM   0  6 10 99 6.298E-9
  ISS   3 10 DC 90.00E-6
  HLIM 90  0 VLIM 1K
  J1   11  2 10 JX
  J2   12  1 10 JX
  R2    6  9 100.0E3
  RD1   4 11 7.958E3
  RD2   4 12 7.958E3
  RO1   8  5 100
  RO2   7 99 100
  RP    3  4 285.7E3
  RSS  10 99 2.222E6
  VB    9  0 DC 0
  VC    3 53 DC 1.66
  VE   54  4 DC 1.66
  VLIM  7  8 DC 0
  VLP  91  0 DC 10
  VLN   0 92 DC 10
.MODEL DX D(IS=800.0E-18)
.MODEL JX PJF(IS=1.500E-12 BETA=175.5E-6 
+ VTO=-1)
.ENDS MC33182
 
*====================================================
*MC33184 OPERATIONAL AMPLIFIER "MACROMODEL" SUBCIRCUIT
*CONNECTIONS: 1=+In, 2=-In, 3=+V, 4=-V, 5=Out
.SUBCKT MC33184  1 2 3 4 5
  C1   11 12 1.061E-12
  C2    6  7 5.000E-12
  CSS  10 99 4.000E-12
  DC    5 53 DX
  DE   54  5 DX
  DLP  90 91 DX
  DLN  92 90 DX
  DP    4  3 DX
  EGND 99  0 POLY(2) (3,0) (4,0) 0 .5 .5
  FB    7 99 POLY(5) VB VC VE VLP VLN 0 4.775E6 
  + -5E6 5E6 5E6 -5E6
  GA    6  0 11 12 125.7E-6
  GCM   0  6 10 99 6.298E-9
  ISS   3 10 DC 90.00E-6
  HLIM 90  0 VLIM 1K
  J1   11  2 10 JX
  J2   12  1 10 JX
  R2    6  9 100.0E3
  RD1   4 11 7.958E3
  RD2   4 12 7.958E3
  RO1   8  5 100
  RO2   7 99 100
  RP    3  4 285.7E3
  RSS  10 99 2.222E6
  VB    9  0 DC 0
  VC    3 53 DC 1.66
  VE   54  4 DC 1.66
  VLIM  7  8 DC 0
  VLP  91  0 DC 10
  VLN   0 92 DC 10
.MODEL DX D(IS=800.0E-18)
.MODEL JX PJF(IS=1.500E-12 BETA=175.5E-6 
+ VTO=-1)
.ENDS MC33184

*====================================================
*MC33204 RAIL-TO-RAIL OPERATIONAL AMPLIFIER "MACROMODEL" SUBCIRCUIT
*CONNECTIONS: 1=+In, 2=-In, 3=+V, 4=-V, 5=Out
.SUBCKT MC33204  1 2 3 4 5
  C1    11  12 8.160E-12
  C1P  111 112 4.160E-12
  C2     6   7 35.00E-12
  DB1    2  1 DX
  DB2    1  2 DX
  DC     5 53 DX
  DCC1   1  3 DX
  DCC2   2  3 DX
  DE    54  5 DX
  DLP   90 91 DX
  DLN   92 90 DX
  DP     4  3 DX
  DIEE 104  4 DX
  EGND  99  0 POLY(2) (3,0) (4,0) 0 .5 .5
  FB     7 99 POLY(5) VB VC VE VLP VLN 0 5.167E6
  + -5E6 5E6 5E6 -5E6
  GA     6  0 11 12 483.8E-6
  GAP    6  0 111 112 483.8E-6
  GCM    0  6 10 99 15.30E-9
  GCMP   0  6 110 99 15.30E-9
  HLIM  90  0 VLIM 1K
  IEEP   3 110 DC 35.16E-6
  Q1    11  2 13 QX
  Q1P  111  2 113 QP
  Q2    12  1 14 QX
  Q2P  112  1 114 QP
  QIEE  10 104   4 QX
  QT   104 103 110 QP
  R2     6  9 100.0E3
  R2P    6  9 100.0E3
  RC1    3 11   2.067E3
  RC1P   4 111  2.067E3
  RC2    3 12   2.067E3
  RC2P   4 112  2.067E3
  RE1   13  10 556.3
  RE1P 113 110 516.3
  RE2   14  10 556.3
  RE2P 114 110 516.3 
  REE   10  99 5.688E6
  REEP 110  99 5.688E6
  RO1    8  5  100
  RO2    7 99  100
  RP     3  4  5.780E3
  VB     9  0 DC 0
  VC     3 53 DC .7951
  VE    54  4 DC .7951
  VLIM   7  8 DC 0
  VT   103  4 DC 700M
  VLP   91  0 DC 80
  VLN    0 92 DC 80
.MODEL DX D(IS=800.0E-18)
.MODEL QX NPN(IS=800.0E-18 BF=218.8)
.MODEL QP PNP(IS=800.0E-18 BF=218.8)
.ENDS MC33204
 
*====================================================
*MC33272 OPERATIONAL AMPLIFIER "MACROMODEL" SUBCIRCUIT
*CONNECTIONS: 1=+In, 2=-In, 3=+V, 4=-V, 5=Out
.SUBCKT MC33272  1 2 3 4 5
  C1   11 12 2.451E-12
  C2    6  7 6.000E-12
  DC    5 53 DX
  DE   54  5 DX
  DLP  90 91 DX
  DLN  92 90 DX
  DP    4  3 DX
  EGND 99  0 POLY(2) (3,0) (4,0) 0 .5 .5
  FB    7 99 POLY(5) VB VC VE VLP VLN 0 12.63E6
  + -10E6 10E6 10E6 -10E6
  GA    6  0 11 12 263.9E-6
  GCM   0  6 10 99 8.345E-9
  IEE   3 10 DC 67.12E-6
  HLIM 90  0 VLIM 1K
  Q1   11  2 13 QX
  Q2   12  1 14 QX
  R2    6  9 100.0E3
  RC1   4 11 3.789E3
  RC2   4 12 3.789E3
  RE1  13 10 2.984E3
  RE2  14 10 2.984E3
  REE  10 99 2.980E6
  RO1   8  5 30
  RO2   7 99 30
  RP    3  4 14.40E3
  VB    9  0 DC 0
  VC    3 53 DC 1.700
  VE   54  4 DC 1.700
  VLIM  7  8 DC 0
  VLP  91  0 DC 37
  VLN   0 92 DC 37
.MODEL DX D(IS=800.0E-18)
.MODEL QX PNP(IS=800.0E-18 BF=107.3)
.ENDS MC33272
 
*====================================================
*MC33274 OPERATIONAL AMPLIFIER "MACROMODEL" SUBCIRCUIT
*CONNECTIONS: 1=+In, 2=-In, 3=+V, 4=-V, 5=Out
.SUBCKT MC33274  1 2 3 4 5
  C1   11 12 2.451E-12
  C2    6  7 6.000E-12
  DC    5 53 DX
  DE   54  5 DX
  DLP  90 91 DX
  DLN  92 90 DX
  DP    4  3 DX
  EGND 99  0 POLY(2) (3,0) (4,0) 0 .5 .5
  FB    7 99 POLY(5) VB VC VE VLP VLN 0 12.63E6
  + -10E6 10E6 10E6 -10E6
  GA    6  0 11 12 263.9E-6
  GCM   0  6 10 99 8.345E-9
  IEE   3 10 DC 67.12E-6
  HLIM 90  0 VLIM 1K
  Q1   11  2 13 QX
  Q2   12  1 14 QX
  R2    6  9 100.0E3
  RC1   4 11 3.789E3
  RC2   4 12 3.789E3
  RE1  13 10 2.984E3
  RE2  14 10 2.984E3
  REE  10 99 2.980E6
  RO1   8  5 30
  RO2   7 99 30
  RP    3  4 14.40E3
  VB    9  0 DC 0
  VC    3 53 DC 1.700
  VE   54  4 DC 1.700
  VLIM  7  8 DC 0
  VLP  91  0 DC 37
  VLN   0 92 DC 37
.MODEL DX D(IS=800.0E-18)
.MODEL QX PNP(IS=800.0E-18 BF=107.3)
.ENDS MC33274
 
*====================================================
*MC33282 OPERATIONAL AMPLIFIER "MACROMODEL" SUBCIRCUIT
*CONNECTIONS: 1=+In, 2=-In, 3=+V, 4=-V, 5=Out
.SUBCKT MC33282  1 2 3 4 5
  C1   11 12 4.767E-12
  C2    6  7 8.000E-12
  DC    5 53 DX
  DE   54  5 DX
  DLP  90 91 DX
  DLN  92 90 DX
  DP    4  3 DX
  EGND 99  0 POLY(2) (3,0) (4,0) 0 .5 .5
  FB    7 99 POLY(5) VB VC VE VLP VLN 0 14.47E6 
  +-10E6 10E6 10E6 -10E6
  GA    6  0 11 12 276.5E-6
  GCM   0  6 10 99 8.742E-9
  ISS   3 10 DC 120.0E-6
  HLIM 90  0 VLIM 1K
  J1   11  2 10 JX
  J2   12  1 10 JX
  R2    6  9 100.0E3
  RD1   4 11 3.617E3
  RD2   4 12 3.617E3
  RO1   8  5 50
  RO2   7 99 50
  RP    3  4 13.95E3
  RSS  10 99 1.667E6
  VB    9  0 DC 0