*Default N-Channel MOSFET parameter values
.MODEL MNMOS~ NMOS()
