*==============================================
*NPN Trans Pinout: C,B,E
*Copyright (c) 1996 MicroCode Engineering, Inc.
*All Rights Reserved
*
*See other copyright notices at end of file.
*==============================================

*NPN
*Default NPN Bipolar transistor parameters pkg:TO-92 1,2,3
.MODEL QNPN~ NPN()

*2N2222A
*Si 500mW  40V 800mA 300MHz pkg:TO-18 3,2,1
.MODEL PARAM NPN(IS=8.11E-14 BF=205 VAF=113 IKF=0.5 ISE=1.06E-11 
+ NE=2 BR=4 VAR=24 IKR=0.225 RB=1.37 RE=0.343 RC=0.137 CJE=2.95E-11 
+ TF=3.97E-10 CJC=1.52E-11 TR=8.5E-8 XTB=1.5 )


*Si 500mW  40V 800mA 300MHz xxx pkg:TO-18 3,2,1
.MODEL PRAMNPN NPN(IS=8.11E-14 BF=205 VAF=113 IKF=0.5 ISE=1.06E-11 
+ NE=2 BR=4 VAR=24 IKR=0.225 RB=1.37 RE=0.343 RC=0.137 CJE=2.95E-11 
+ TF=3.97E-10 CJC=1.52E-11 TR=8.5E-8 XTB=1.5 )

