*=================================================
* National Semiconductor Spice Models published in
* National Discrete Diode, Bipolar Transistor,
* and JFET Products Databook, 1996
*=================================================

*PN2222A Spice Model p.5-18
*NS Si 625mW 40V 1A 300MHz GenPurp pkg:TO-92B 1,2,3
.MODEL PN2222A/NS NPN (IS=14.34F XTI=3 EG=1.11 VAF=74.03 BF=255.9
+ NE=1.307 ISE=14.34F IKF=.2847 XTB=1.5 BR=6.092 NC=2 ISC=0 IKR=0
+ RC=1 CJC=7.306P MJC=.3416 VJC=.75 FC=.5 CJE=22.01P MJE=.377
+ VJE=.75 TR=46.91N TF=411.1P ITF=.6 VTF=1.7 XTF=3 RB=10)

*PN2369A Spice Model p.5-24
*NS Si 350mW 15V 200mA Switching pkg:TO-92B 1,2,3
.MODEL PN2369A/NS NPN (IS=44.14f XTI=3 EG=1.11 VAF=100 BF=78.32
+ NE=1.389 ISE=91.95F IKF=.3498 XTB=1.5 BR=12.69M NC=2 ISC=0 IKR=0
+ RC=.6 CJC=2.83P MJC=86.19M VJC=.75 FC=.5 CJE=4.5P MJE=.2418
+ TR=1.073U TF=227.6P ITF=.3 VTF=4 XTF=4 RB=10)

*PN2907A Spice Model p.5-33
*NS Si 625mW 60V 800mA 200MHz GenPurp pkg:TO-92B 1,2,3
.MODEL PN2907A/NS PNP (IS=650.6E-18 XTI=3 EG=1.11 VAF=115.7 BF=231.7
+ NE=1.829 ISE=54.81F IKF=1.079 XTB=1.5 BR=3.563 NC=2 ISC=0 IKR=0
+ RC=.715 CJC=14.76P MJC=.5383 VJC=.75 FC=.5 CJE=19.82P MJE=.3357
+ VJE=.75 TR=111.3N TF=603.7P ITF=.65 VTF=5 RB=10)

*2N3904 Spice Model p.5-66
*NS Si 625mW 40V 200mA 300MHz GenPurp pkg:TO-92B 1,2,3
.MODEL 2N3904/NS NPN (IS=6.734F XTI=3 EG=1.11 VAF=74.03 BF=416.4
+ NE=1.259 ISE=6.734F IKF=66.78M XTB=1.5 BR=.7371 NC=2 ISC=0 IKR=0
+ RC=1 CJC=3.638P MJC=.3085 VJC=.75 FC=.5 CJE=4.493P MJE=.2593
+ VJE=.75 TR=239.5N TF=301.2P ITF=.4 VTF=4 XTF=2 RB=10)

*2N3906 Spice Model p.5-73
*NS Si 625mW 40V 200mA 250MHz GenPurp pkg:TO-92B 1,2,3
.MODEL 2N3906/NS PNP (IS=1.41F XTI=3 EG=1.11 VAF=18.7 BF=180.7
+ NE=1.5 ISE=0 IKF=80M XTB=1.5 BR=4.977 NC=2 ISC=0 IKR=0 RC=2.5
+ CJC=9.728P MJC=.5776 VJC=.75 FC=.5 CJE=8.063P MJE=.3677 VJE=.75
+ TR=33.42N TF=179.3P ITF=.4 VTF=4 XTF=6 RB=10)

*PN4258 Spice Model p.5-87
*NS Si 350mW 12V 200mA 700MHz Switching pkg:TO-92B 1,2,3
.MODEL PN4258/NS PNP (IS=545.6E-18 XTI=3 EG=1.11 VAF=100 BF=61.42
+ NE=1.5 ISE=0 IKF=50M XTB=1.5 BR=1.426 NC=2 ISC=0 IKR=0 RC=3.75
+ CJC=2.77P MJC=.1416 VJC=.75 FC=.5 CJE=2.65P MJE=.3083 VJE=.75
+ TR=4.109N TF=118.5P ITF=.5 VTF=3 XTF=6 RB=10)

*2N5086 Spice Model p.5-97
*NS Si 625mW 50V 100mA 40MHz GenPurp pkg:TO-92B 1,2,3
.MODEL 2N5086/NS PNP (IS=6.734F XTI=3 EG=1.11 VAF=45.7 BF=254.1
+ NE=1.741 ISE=6.734F IKF=.1962 XTB=1.5 BR=2.683 NC=2 ISC=0 IKR=0
+ RC=1.67 CJC=6.2P MJC=.301 VJC=.75 FC=.5 CJE=7.5P MJE=.2861
+ VJE=.75 TR=10.1N TF=467.8P ITF=.17 VTF=5 XTF=8 RB=10)

*2N5088 Spice Model p.5-103
*NS Si 625mW 30V 100mA 50MHz GenPurp pkg:TO-92B 1,2,3
.MODEL 2N5088/NS NPN (IS=5.911F XTI=3 EG=1.11 VAF=62.37 BF=1.122K
+ NE=1.394 ISE=5.911F IKF=14.92M XTB=1.5 BR=1.271 NC=2 ISC=0 IKR=0
+ RC=1.61 CJC=4.017P MJC=.3174 VJC=.75 FC=.5 CJE=4.973P MJE=.4146
+ VJE=.75 TR=4.673N TF=821.7P ITF=.35 ITF=.35 VTF=4 XTF=7 RB=10)

*MPS5179 Spice Model p.5-109
*NS Si 350mW 12V 50mA 1.5GHz RF pkg:TO-92B 1,2,3
.MODEL MPS5179/NS NPN (IS=69.28E-18 XTI=3 EG=1.11 VAF=100 BF=282.1
+ NE=1.177 ISE=69.28E-18 IKF=22.03M XTB=1.5 BR=1.176 NC=2 ISC=0
+ IKR=0 RC=4 CJC=1.042P MJC=.2468 VJC=.75 FC=.5 CJE=1.52P MJE=.3223
+ VJE=.75 TR=1.588 TF=135.6P ITF=.27 VTF=10 XTF=30 RB=10)

*2N5401 Spice Model p.5-115
*NS Si 625mW 150V 200mA 200MHz GenPurp pkg:TO-92B 1,2,3
.MODEL 2N5401/NS PNP (IS=21.48F XTI=3 EG=1.11 VAF=100 BF=132.1
+ NE=1.375 ISE=21.48F IKF=.1848 XTB=1.5 BR=3.661 NC=2 ISC=0 IKR=0
+ RC=1.6 CJC=17.63P MJC=.5312 VJC=.75 FC=.5 CJE=73.39P MJE=.3777
+ VJE=.75 TR=1.476N TF=641.9P ITF=0 VTF=0 RB=10)

*2N5551 Spice Model p.5-119
*NS Si 625mW 160V 200mA 200MHz GenPurp pkg:TO-92B 1,2,3
.MODEL 2N5551/NS NPN (IS=2.511F XTI=3 EG=1.11 VAF=100 BF=242.6
+ NE=1.249 ISE=2.511F IKF=.3458 XTB=1.5 BR=3.197 NC=2 ISC=0 IKR=0
+ RC=1 CJC=4.883P MJC=.3047 VJC=.75 FC=.5 CJE=18.79P MJE=.3416
+ VJE=.75 TR=1.202N TF=560P ITF=50M VTF=5 XTF=8 RB=10)

*MPSA06 Spice Model p.5-161
*NS Si 625mW 80V 500mA 100MHz GenPurp pkg:TO-92B 1,2,3
.MODEL MPSA06/NS NPN (IS=8.324F XTI=3 EG=1.11 VAF=100 BF=12.16K
+ NE=1.368 ISE=73.27F IKF=.1096 XTB=1.5 BR=11.1 NC=2 ISC=0 IKR=0
+ RC=.25 CJC=18.36P MJC=.3843 VJC=.75 FC=.5 CJE=55.61P MJE=.3834
+ VJE=.75 TR=72.15N TF=516.1P ITF=.5 VTF=4 XTF=6 RB=10)

*MPSA42 Spice Model p.5-173
*NS Si 625mW 300V 200mA 50MHz HiVolt pkg:TO-92B 1,2,3
.MODEL MPSA42/NS NPN (IS=34.9F XTI=3 EG=1.11 VAF=100 BF=2.56K
+ NE=1.708 ISE=16.32P IKF=23.79M XTB=1.5 BR=9.769 NC=2 ISC=0
+ IKR=0 RC=7 CJC=14.23P MJC=.5489 VJC=.75 FC=.5 CJE=49.62P
+ MJE=.4136 VJE=.75 TR=934.3P TF=1.69N ITF=5 VTF=20 XTF=150 RB=10)

*MPSA56 Spice Model p.5-179
*NS Si 625mW 80V 500mA 50MHz GenPurp pkg:TO-92B 1,2,3
.MODEL MPSA56/NS PNP (IS=12.27P XTI=3 EG=1.11 VAF=100 BF=91.63
+ NE=1.531 ISE=12.27P IKF=1.009 XTB=1.5 BR=1.287 NC=2 ISC=0 IKR=0
+ RC=.6 CJC=48.28P MJC=.5615 VJC=.75 FC=.5 CJE=106.7P MJE=.5168
+ VJE=.75 TR=496.3N TF=865.8P ITF=.2 VTF=2 XTF=.8 RB=10)

*MPSA92 Spice Model p.5-186
*NS Si 625mW 300V 100mA 50MHz HiVolt pkg:TO-92B 1,2,3
.MODEL MPSA92/NS PNP (IS=218.9F XTI=3 EG=1.11 VAF=100 BF=99
+ NE=1.307 ISE=218.9F IKF=.2016 XTB=1.5 BR=24.67 NC=2 ISC=0 IKR=0
+ RC=7 CJC=19.88P MJC=.4876 VJC=.75 FC=.5 CJE=81.49P MJE=.3493
+ VJE=.75 TR=516.9P TF=1.395N ITF=1.5 VTF=22 XTF=270 RB=10)

*MPSH10 Spice Model p.5-191
*NS Si 350mW 25V 50mA 650MHz RF pkg:TO-92B 1,2,3
.MODEL MPSH10/NS NPN (IS=69.28E-18 XTI=3 EG=1.11 VAF=100 BF=308.6
+ NE=1.197 ISE=69.28E-18 IKF=22.83M XTB=1.5 BR=1.11 NC=2 ISC=0
+ IKR=0 RC=4 CJC=1.042P MJC=.2468 VJC=.75 FC=.5 CJE=1.52P
+ MJE=.3223 VJE=.75 TR=1.558N TF=135.8P ITF=.27 VTF=10 XTF=30
+ RB=10)

*BSR14 Spice Model p.6-69
*NS Si 350mW 40V 800mA 300MHz GenPurp pkg:SOT-23 1,3,2
.MODEL BSR14/NS NPN (IS=14.34F XTI=3 EG=1.11 VAF=74.03 BF=255.9
+ NE=1.307 ISE=14.34F IKF=.2847 XTB=1.5 BR=6.092 NC=2 ISC=0 IKR=0
+ RC=1 CJC=7.306P MJC=.3416 VJC=.75 FC=.5 CJE=22.01P MJE=.377
+ VJE=.75 TR=46.91N TF=411.1P ITF=.6 VTF=1.7 XTF=3 RB=10)

*BSR15 Spice Model p.6-71
*NS Si 350mW 40V 800mA 200MHz GenPurp pkg:SOT-23 1,3,2
.MODEL BSR15/NS PNP (IS=650.6E-18 XTI=3 EG=1.11 VAF=115.7 BF=231.7
+ NE=1.829 ISE=54.81F IKF=1.079 XTB=1.5 BR=3.563 NC=2 ISC=0 IKR=0
+ RC=.715 CJC=14.76P MJC=.5383 VJC=.75 FC=.5 CJE=19.82P MJE=.3357
+ VJE=.75 TR=111.3N TF=603.7P ITF=.65 VTF=5 XTF=1.7 RB=10)

*BSR17A Spice Model p.6-73
*NS Si 350mW 40V 200mA 300MHz GenPurp pkg:SOT-23 1,3,2
.MODEL BSR17A/NS NPN (IS=6.734F XTI=3 EG=1.11 VAF=74.03 BF=416.4
+ NE=1.259 ISE=6.734F IKF=66.78M XTB=1.5 BR=.7371 NC=2 ISC=0 IKR=0
+ RC=1 CJC=3.638P MJC=.3085 VJC=.75 FC=.5 CJE=4.493P MJE=.2593
+ VJE=.75 TR=239.5N TF=301.2P ITF=.4 VTF=4 XTF=2 RB=10)

*BSR18A Spice Model p.6-80
*NS Si 350mW 40V 200mA 250MHz GenPurp pkg:SOT-23 1,3,2
.MODEL BSR18A/NS PNP (IS=1.41F XTI=3 EG=1.11 VAF=18.7 BF=180.7
+ NE=1.5 ISE=0 IKF=80M XTB=1.5 BR=4.977 NC=2 ISC=0 IKR=0 RC=2.5
+ CJC=9.728P MJC=.5776 VJC=.75 FC=.5 CJE=8.063P MJE=.3677 VJE=.75
+ TR=33.42N TF=179.3P ITF=.4 VTF=4 XTF=6 RB=10)

*BSS63 Spice Model p.6-84
*NS Si 350mW 100V 200mA 50MHz GenPurp pkg:SOT-23 1,3,2
.MODEL BSS63/NS PNP (IS=21.48F XTI=3 EG=1.11 VAF=100 BF=132.1
+ NE=1.375 ISE=21.48F IKF=.1848 XTB=1.5 BR=3.661 NC=2 ISC=0 IKR=0
+ RC=1.6 CJC=17.63P MJC=.5312 VJC=.75 FC=.5 CJE=73.39P MJE=.3777
+ VJE=.75 TR=1.476N TF=641.9P ITF=0 VTF=0 XTF=0 RB=10)

*BSS64 Spice Model p.6-89
*NS Si 350mW 80V 200mA 60MHz GenPurp pkg:SOT-23 1,3,2
.MODEL BSS64/NS NPN (IS=2.511F XTI=3 EG=1.11 VAF=100 BF=242.6
+ NE=1.249 ISE=2.511F IKF=.3458 XTB=1.5 BR=3.197 NC=2 ISC=0 IKR=0
+ RC=1 CJC=4.883P MJC=.3047 VJC=.75 FC=.5 CJE=18.79P MJE=.3416
+ VJE=.75 TR=1.202N TF=560P ITF=50M VTF=5 XTF=8 RB=10)

*BSV52 Spice Model p.6-93
*NS Si 225mW 12V 200mA 400MHz Switching pkg:SOT-23 1,3,2
.MODEL BSV52/NS NPN (IS=44.14F XTI=3 EG=1.11 VAF=100 BF=78.32
+ ISE=91.95F IKF=.3498 XTB=1.5 BR=12.69M NC=2 ISC=0 IKR=0 RC=.6
+ CJC=2.83P MJC=86.19M VJC=.75 FC=.5 CJE=4.5P MJE=.2418 VJE=.75
+ TR=1.073U TF=227.6P ITF=.3 VTF=4 XTF=4 RB=10)
