*Default P-Channel MOSFET parameter values
.MODEL MPMOS~ PMOS()
