*BAL74  ZETEX Spice Model        Last revision 24/8/92
*NOTES: FOR RF OPERATION ADD PACKAGE INDUCTANCE 0F 2.5E-9H AND 
* PARALLEL CAPACITANCE OF 0.95E-12F.
*ZTX 
.SUBCKT DBAL74 1 3
L1 1 2 2.5E-9
C1 1 3 0.95E-12
D1 2 3 DA
.MODEL DA D(IS=4.739E-9 RS=0.4418 N=1.849 TT=2.02E-9 BV=99.08 
+ IBV=0.02588 )
.ENDS DBAL74

*BAL99  ZETEX Spice Model        Last revision 21/8/92
*NOTES: FOR RF OPERATION ADD PACKAGE INDUCTANCE 0F 2.5E-9H AND 
* PARALLEL CAPACITANCE OF 0.51E-12F.
.MODEL BAL99 D(IS=4.858E-9 RS=1.898 N=2.038 TT=4.184E-9 BV=164.1 
+ IBV=0.01294 )

*BAR74 ZETEX Spice Model        Last revision 24/8/92
*NOTES: FOR RF OPERATION ADD PACKAGE INDUCTANCE 0F 2.5E-9H AND 
* PARALLEL CAPACITANCE OF 0.95E-12F.
.MODEL BAR74 D(IS=4.739E-9 RS=0.4418 N=1.849 TT=2.02E-9 BV=99.08 
+ IBV=0.02588 )

*BAR99  ZETEX Spice Model        Last revision 21/8/92
*NOTES: FOR RF OPERATION ADD PACKAGE INDUCTANCE 0F 2.5E-9H AND 
* PARALLEL CAPACITANCE OF 0.51E-12F.
.MODEL BAR99 D(IS=4.858E-9 RS=1.898 N=2.038 TT=4.184E-9 BV=164.1 
+ IBV=0.01294 )

*BAS16 ZETEX Spice Model        Last revision 24/8/92
*NOTES: FOR RF OPERATION ADD PACKAGE INDUCTANCE 0F 2.5E-9H AND 
* PARALLEL CAPACITANCE OF 0.555E-12F.
.MODEL BAS16 D(IS=1.795E-9 RS=1.263 N=1.874 TT=7.358E-9 BV=153.1 
+ IBV=0.01726 )

*BAS19  ZETEX Spice Model        Last revision 21/8/92
*NOTE: FOR RF OPERATION ADD PACKAGE INDUCTANCE OF 2.5E-9H AND
* PARALLEL CAPACITANCE OF 0.55E-12F. 
.MODEL BAS19 D(IS=8.402E-9 RS=0.5125 N=2.011 TT=4.184E-8 BV=435 
+ IBV=0.004139 )

*BAS20  ZETEX Spice Model        Last revision 21/8/92
*NOTE: FOR RF OPERATION ADD PACKAGE INDUCTANCE OF 2.5E-9H AND
* PARALLEL CAPACITANCE OF 0.55E-12F. 
.MODEL BAS20 D(IS=8.402E-9 RS=0.5125 N=2.011 TT=4.184E-8 BV=435 
+ IBV=0.004139 )

*BAS21  ZETEX Spice Model        Last revision 21/8/92
*NOTE: FOR RF OPERATION ADD PACKAGE INDUCTANCE OF 2.5E-9H AND
* PARALLEL CAPACITANCE OF 0.55E-12F. 
.MODEL BAS21 D(IS=8.402E-9 RS=0.5125 N=2.011 TT=4.184E-8 BV=435 
+ IBV=0.004139 )

*FMMD6050 ZETEX Spice Model        Last revision 24/8/92
*NOTES: FOR RF OPERATION ADD PACKAGE INDUCTANCE 0F 2.5E-9H AND 
* PARALLEL CAPACITANCE OF 0.555E-12F.
.MODEL FMMD6050 D IS=1.795E-9 N=1.874 RS=1.263 XTI=3 
+ EG=1.11 BV=153.1 IBV=17.26E-3 TT=7.358E-9

*FMMD914  ZETEX Spice Model        Last revision 21/8/92
*NOTES: FOR RF OPERATION ADD PACKAGE INDUCTANCE 0F 2.5E-9H AND 
* PARALLEL CAPACITANCE OF 0.51E-12F.
.MODEL FMMD914 D(IS=4.858E-9 RS=1.898 N=2.038 TT=4.184E-9 BV=164.1 
+ IBV=0.01294 )

*HD3A  ZETEX Spice Model        Last revision 21/8/92
*NOTES: FOR RF OPERATION ADD PACKAGE INDUCTANCE 0F 2.5E-9H AND 
* PARALLEL CAPACITANCE OF 0.51E-12F.
.MODEL HD3A D(IS=4.858E-9 RS=1.898 N=2.038 TT=4.184E-9 BV=164.1 
+ IBV=0.01294 )

*2N6715 ZETEX Spice model   Last revision  16/1/91   Medium Power
.MODEL 2N6715 NPN(IS=2.22E-13 BF=230 NF=0.9956 VAF=100 IKF=2 ISE=2.9E-14 
+ NE=1.35 BR=56 NR=0.995 VAR=30 IKR=1 ISC=2.97E-13 NC=1.321 RB=0.04 
+ RE=0.075 RC=0.069 CJE=3.18E-10 TF=7.7E-10 CJC=5.1E-11 VJC=0.595 MJC=0.42 
+ TR=2.7E-8 )

*2SC2873 ZETEX Spice model   Last revision  17/7/90   Medium Power
.MODEL 2SC2873 NPN(IS=3E-13 BF=225 VAF=80 IKF=2.8 ISE=1.1E-13 NE=1.37 
+ BR=110 NR=0.972 VAR=28 IKR=0.8 ISC=6.5E-13 NC=1.372 RB=0.3 RE=0.063 
+ RC=0.07 CJE=3.25E-10 TF=1E-9 CJC=7E-11 TR=1E-8 )

*BC107BP ZETEX Spice model     Last revision  4/90   General Purpose
.MODEL BC107BP NPN(IS=1.8E-14 BF=400 NF=0.9955 VAF=80 IKF=0.14 ISE=5E-14 
+ NE=1.46 BR=35.5 NR=1.005 VAR=12.5 IKR=0.03 ISC=1.72E-13 NC=1.27 RB=0.56 
+ RE=0.6 RC=0.25 CJE=1.3E-11 TF=6.4E-10 CJC=4E-12 VJC=0.54 TR=5.072E-8 )

*BC108BP ZETEX Spice model     Last revision  4/90   General Purpose
.MODEL BC108BP NPN(IS=1.8E-14 BF=400 NF=0.9955 VAF=80 IKF=0.14 ISE=5E-14 
+ NE=1.46 BR=35.5 NR=1.005 VAR=12.5 IKR=0.03 ISC=1.72E-13 NC=1.27 RB=0.56 
+ RE=0.6 RC=0.25 CJE=1.3E-11 TF=6.4E-10 CJC=4E-12 VJC=0.54 TR=5.072E-8 )

*BC109BP ZETEX Spice model     Last revision  4/90   Low Noise
.MODEL BC109BP NPN(IS=1.8E-14 BF=400 NF=0.9955 VAF=80 IKF=0.14 ISE=5E-14 
+ NE=1.46 BR=35.5 NR=1.005 VAR=12.5 IKR=0.03 ISC=1.72E-13 NC=1.27 RB=0.56 
+ RE=0.6 RC=0.25 CJE=1.3E-11 TF=6.4E-10 CJC=4E-12 VJC=0.54 TR=5.072E-8 )

*BC182BP ZETEX Spice model     Last revision  4/90   General Purpose
.MODEL BC182BP NPN(IS=1.8E-14 BF=400 NF=0.9955 VAF=80 IKF=0.14 ISE=5E-14 
+ NE=1.46 BR=35.5 NR=1.005 VAR=12.5 IKR=0.03 ISC=1.72E-13 NC=1.27 RB=0.56 
+ RE=0.6 RC=0.25 CJE=1.3E-11 TF=6.4E-10 CJC=4E-12 VJC=0.54 TR=5.072E-8 )

*BC183BP ZETEX Spice model     Last revision  4/90   General Purpose
.MODEL BC183BP NPN(IS=1.8E-14 BF=400 NF=0.9955 VAF=80 IKF=0.14 ISE=5E-14 
+ NE=1.46 BR=35.5 NR=1.005 VAR=12.5 IKR=0.03 ISC=1.72E-13 NC=1.27 RB=0.56 
+ RE=0.6 RC=0.25 CJE=1.3E-11 TF=6.4E-10 CJC=4E-12 VJC=0.54 TR=5.072E-8 )

*BC184BP ZETEX Spice model     Last revision  4/90   Low Noise
.MODEL BC184BP NPN(IS=1.8E-14 BF=400 NF=0.9955 VAF=80 IKF=0.14 ISE=5E-14 
+ NE=1.46 BR=35.5 NR=1.005 VAR=12.5 IKR=0.03 ISC=1.72E-13 NC=1.27 RB=0.56 
+ RE=0.6 RC=0.25 CJE=1.3E-11 TF=6.4E-10 CJC=4E-12 VJC=0.54 TR=5.072E-8 )

*BC237BP ZETEX Spice model     Last revision  4/90   General Purpose
.MODEL BC237BP NPN(IS=1.8E-14 BF=400 NF=0.9955 VAF=80 IKF=0.14 ISE=5E-14 
+ NE=1.46 BR=35.5 NR=1.005 VAR=12.5 IKR=0.03 ISC=1.72E-13 NC=1.27 RB=0.56 
+ RE=0.6 RC=0.25 CJE=1.3E-11 TF=6.4E-10 CJC=4E-12 VJC=0.54 TR=5.072E-8 )

*BC238BP ZETEX Spice model     Last revision  4/90   General Purpose
.MODEL BC238BP NPN(IS=1.8E-14 BF=400 NF=0.9955 VAF=80 IKF=0.14 ISE=5E-14 
+ NE=1.46 BR=35.5 NR=1.005 VAR=12.5 IKR=0.03 ISC=1.72E-13 NC=1.27 RB=0.56 
+ RE=0.6 RC=0.25 CJE=1.3E-11 TF=6.4E-10 CJC=4E-12 VJC=0.54 TR=5.072E-8 )

*BC239BP ZETEX Spice model     Last revision  4/90   Low Noise
.MODEL BC239BP NPN(IS=1.8E-14 BF=400 NF=0.9955 VAF=80 IKF=0.14 ISE=5E-14 
+ NE=1.46 BR=35.5 NR=1.005 VAR=12.5 IKR=0.03 ISC=1.72E-13 NC=1.27 RB=0.56 
+ RE=0.6 RC=0.25 CJE=1.3E-11 TF=6.4E-10 CJC=4E-12 VJC=0.54 TR=5.072E-8 )

*BC337AP ZETEX Spice model     Last revision  4/90   Medium Power
.MODEL BC337AP NPN(IS=3.94E-14 BF=175 VAF=109.4 IKF=0.8 ISE=7.4E-15 
+ NE=1.3 BR=20.5 NR=0.974 VAR=14.25 IKR=0.1 ISC=3.16E-13 NC=1.2 RB=1.1 
+ RE=0.1259 RC=0.0539 CJE=6.3E-11 TF=7.5E-10 CJC=1.58E-11 VJC=0.505 
+ MJC=0.39 TR=8.5E-8 )

*BC338AP ZETEX Spice model     Last revision  4/90   Medium Power
.MODEL BC338AP NPN(IS=3.94E-14 BF=175 VAF=109.4 IKF=0.8 ISE=7.4E-15 
+ NE=1.3 BR=20.5 NR=0.974 VAR=14.25 IKR=0.1 ISC=3.16E-13 NC=1.2 RB=1.1 
+ RE=0.1259 RC=0.0539 CJE=6.3E-11 TF=7.5E-10 CJC=1.58E-11 VJC=0.505 
+ MJC=0.39 TR=8.5E-8 )

*BC413BP ZETEX Spice model     Last revision  4/90   Low Noise
.MODEL BC413BP NPN(IS=1.8E-14 BF=400 NF=0.9955 VAF=80 IKF=0.14 ISE=5E-14 
+ NE=1.46 BR=35.5 NR=1.005 VAR=12.5 IKR=0.03 ISC=1.72E-13 NC=1.27 RB=0.56 
+ RE=0.6 RC=0.25 CJE=1.3E-11 TF=6.4E-10 CJC=4E-12 VJC=0.54 TR=5.072E-8 )

*BC414BP ZETEX Spice model     Last revision  4/90   Low Noise
.MODEL BC414BP NPN(IS=1.8E-14 BF=400 NF=0.9955 VAF=80 IKF=0.14 ISE=5E-14 
+ NE=1.46 BR=35.5 NR=1.005 VAR=12.5 IKR=0.03 ISC=1.72E-13 NC=1.27 RB=0.56 
+ RE=0.6 RC=0.25 CJE=1.3E-11 TF=6.4E-10 CJC=4E-12 VJC=0.54 TR=5.072E-8 )

*BC546BP ZETEX Spice model     Last revision  4/90   General Purpose
.MODEL BC546BP NPN(IS=1.8E-14 BF=400 NF=0.9955 VAF=80 IKF=0.14 ISE=5E-14 
+ NE=1.46 BR=35.5 NR=1.005 VAR=12.5 IKR=0.03 ISC=1.72E-13 NC=1.27 RB=0.56 
+ RE=0.6 RC=0.25 CJE=1.3E-11 TF=6.4E-10 CJC=4E-12 VJC=0.54 TR=5.072E-8 )

*BC547BP ZETEX Spice model     Last revision  4/90   General Purpose
.MODEL BC547BP NPN(IS=1.8E-14 BF=400 NF=0.9955 VAF=80 IKF=0.14 ISE=5E-14 
+ NE=1.46 BR=35.5 NR=1.005 VAR=12.5 IKR=0.03 ISC=1.72E-13 NC=1.27 RB=0.56 
+ RE=0.6 RC=0.25 CJE=1.3E-11 TF=6.4E-10 CJC=4E-12 VJC=0.54 TR=5.072E-8 )

*BC548BP ZETEX Spice model     Last revision  4/90   General Purpose
.MODEL BC548BP NPN(IS=1.8E-14 BF=400 NF=0.9955 VAF=80 IKF=0.14 ISE=5E-14 
+ NE=1.46 BR=35.5 NR=1.005 VAR=12.5 IKR=0.03 ISC=1.72E-13 NC=1.27 RB=0.56 
+ RE=0.6 RC=0.25 CJE=1.3E-11 TF=6.4E-10 CJC=4E-12 VJC=0.54 TR=5.072E-8 )

*BC549BP ZETEX Spice model     Last revision  4/90   Low Noise
.MODEL BC549BP NPN(IS=1.8E-14 BF=400 NF=0.9955 VAF=80 IKF=0.14 ISE=5E-14 
+ NE=1.46 BR=35.5 NR=1.005 VAR=12.5 IKR=0.03 ISC=1.72E-13 NC=1.27 RB=0.56 
+ RE=0.6 RC=0.25 CJE=1.3E-11 TF=6.4E-10 CJC=4E-12 VJC=0.54 TR=5.072E-8 )

*BC550BP ZETEX Spice model     Last revision  4/90   Low Noise
.MODEL BC550BP NPN(IS=1.8E-14 BF=400 NF=0.9955 VAF=80 IKF=0.14 ISE=5E-14 
+ NE=1.46 BR=35.5 NR=1.005 VAR=12.5 IKR=0.03 ISC=1.72E-13 NC=1.27 RB=0.56 
+ RE=0.6 RC=0.25 CJE=1.3E-11 TF=6.4E-10 CJC=4E-12 VJC=0.54 TR=5.072E-8 )

*BC846B ZETEX Spice model     Last revision  4/90   General Purpose
.MODEL BC846B NPN(IS=1.8E-14 BF=400 NF=0.9955 VAF=80 IKF=0.14 ISE=5E-14 
+ NE=1.46 BR=35.5 NR=1.005 VAR=12.5 IKR=0.03 ISC=1.72E-13 NC=1.27 RB=0.56 
+ RE=0.6 RC=0.25 CJE=1.3E-11 TF=6.4E-10 CJC=4E-12 VJC=0.54 TR=5.072E-8 )

*BC847B ZETEX Spice model     Last revision  4/90   General Purpose
.MODEL BC847B NPN(IS=1.8E-14 BF=400 NF=0.9955 VAF=80 IKF=0.14 ISE=5E-14 
+ NE=1.46 BR=35.5 NR=1.005 VAR=12.5 IKR=0.03 ISC=1.72E-13 NC=1.27 RB=0.56 
+ RE=0.6 RC=0.25 CJE=1.3E-11 TF=6.4E-10 CJC=4E-12 VJC=0.54 TR=5.072E-8 )

*BC848B ZETEX Spice model     Last revision  4/90   General Purpose
.MODEL BC848B NPN(IS=1.8E-14 BF=400 NF=0.9955 VAF=80 IKF=0.14 ISE=5E-14 
+ NE=1.46 BR=35.5 NR=1.005 VAR=12.5 IKR=0.03 ISC=1.72E-13 NC=1.27 RB=0.56 
+ RE=0.6 RC=0.25 CJE=1.3E-11 TF=6.4E-10 CJC=4E-12 VJC=0.54 TR=5.072E-8 )

*BC849B ZETEX Spice model     Last revision  4/90   Low Noise
.MODEL BC849B NPN(IS=1.8E-14 BF=400 NF=0.9955 VAF=80 IKF=0.14 ISE=5E-14 
+ NE=1.46 BR=35.5 NR=1.005 VAR=12.5 IKR=0.03 ISC=1.72E-13 NC=1.27 RB=0.56 
+ RE=0.6 RC=0.25 CJE=1.3E-11 TF=6.4E-10 CJC=4E-12 VJC=0.54 TR=5.072E-8 )

*BC850B ZETEX Spice model     Last revision  4/90   Low Noise
.MODEL BC850B NPN(IS=1.8E-14 BF=400 NF=0.9955 VAF=80 IKF=0.14 ISE=5E-14 
+ NE=1.46 BR=35.5 NR=1.005 VAR=12.5 IKR=0.03 ISC=1.72E-13 NC=1.27 RB=0.56 
+ RE=0.6 RC=0.25 CJE=1.3E-11 TF=6.4E-10 CJC=4E-12 VJC=0.54 TR=5.072E-8 )

*BCV72 ZETEX Spice model     Last revision  4/90   General Purpose
.MODEL BCV72 NPN(IS=1.8E-14 BF=400 NF=0.9955 VAF=80 IKF=0.14 ISE=5E-14 
+ NE=1.46 BR=35.5 NR=1.005 VAR=12.5 IKR=0.03 ISC=1.72E-13 NC=1.27 RB=0.56 
+ RE=0.6 RC=0.25 CJE=1.3E-11 TF=6.4E-10 CJC=4E-12 VJC=0.54 TR=5.072E-8 )

*BCW32 ZETEX Spice model     Last revision  4/90   General Purpose
.MODEL BCW32 NPN(IS=1.8E-14 BF=400 NF=0.9955 VAF=80 IKF=0.14 ISE=5E-14 
+ NE=1.46 BR=35.5 NR=1.005 VAR=12.5 IKR=0.03 ISC=1.72E-13 NC=1.27 RB=0.56 
+ RE=0.6 RC=0.25 CJE=1.3E-11 TF=6.4E-10 CJC=4E-12 VJC=0.54 TR=5.072E-8 )

*BCW60C ZETEX Spice model     Last revision  4/90   General Purpose
.MODEL BCW60C NPN(IS=1.8E-14 BF=400 NF=0.9955 VAF=80 IKF=0.14 ISE=5E-14 
+ NE=1.46 BR=35.5 NR=1.005 VAR=12.5 IKR=0.03 ISC=1.72E-13 NC=1.27 RB=0.56 
+ RE=0.6 RC=0.25 CJE=1.3E-11 TF=6.4E-10 CJC=4E-12 VJC=0.54 TR=5.072E-8 )

*BCW65A ZETEX Spice model     Last revision  4/90   Medium Power
.MODEL BCW65A NPN(IS=3.94E-14 BF=175 VAF=109.4 IKF=0.8 ISE=7.4E-15 
+ NE=1.3 BR=20.5 NR=0.974 VAR=14.25 IKR=0.1 ISC=3.16E-13 NC=1.2 RB=1.1 
+ RE=0.1259 RC=0.0539 CJE=6.3E-11 TF=7.5E-10 CJC=1.58E-11 VJC=0.505 
+ MJC=0.39 TR=8.5E-8 )

*BCW66F ZETEX Spice model     Last revision  4/90   Medium Power
.MODEL BCW66F NPN(IS=3.94E-14 BF=175 VAF=109.4 IKF=0.8 ISE=7.4E-15 
+ NE=1.3 BR=20.5 NR=0.974 VAR=14.25 IKR=0.1 ISC=3.16E-13 NC=1.2 RB=1.1 
+ RE=0.1259 RC=0.0539 CJE=6.3E-11 TF=7.5E-10 CJC=1.58E-11 VJC=0.505 
+ MJC=0.39 TR=8.5E-8 )

*BCW72 ZETEX Spice model     Last revision  4/90   General Purpose
.MODEL BCW72 NPN(IS=1.8E-14 BF=400 NF=0.9955 VAF=80 IKF=0.14 ISE=5E-14 
+ NE=1.46 BR=35.5 NR=1.005 VAR=12.5 IKR=0.03 ISC=1.72E-13 NC=1.27 RB=0.56 
+ RE=0.6 RC=0.25 CJE=1.3E-11 TF=6.4E-10 CJC=4E-12 VJC=0.54 TR=5.072E-8 )

*BCX70J ZETEX Spice model     Last revision  4/90   General Purpose
.MODEL BCX70J NPN(IS=1.8E-14 BF=400 NF=0.9955 VAF=80 IKF=0.14 ISE=5E-14 
+ NE=1.46 BR=35.5 NR=1.005 VAR=12.5 IKR=0.03 ISC=1.72E-13 NC=1.27 RB=0.56 
+ RE=0.6 RC=0.25 CJE=1.3E-11 TF=6.4E-10 CJC=4E-12 VJC=0.54 TR=5.072E-8 )

*BFQ31 ZETEX Spice model   Last revision 9/90   VHF/RF
.MODEL BFQ31 NPN(IS=1.73E-13 BF=200 VAF=90 IKF=0.0088 ISE=2.41E-10 
+ NE=1.701 BR=3.124 NR=0.9705 VAR=9.7 IKR=0.02 ISC=8.31E-13 NC=1.112 
+ RB=17 RE=2.13 RC=30 CJE=2.27E-12 TF=2E-10 CJC=1.2E-12 VJC=0.415 MJC=0.145 
+ TR=1E-9 )

*BFS60 ZETEX Spice model     Last revision  4/90   Medium Power
.MODEL BFS60 NPN(IS=3.94E-14 BF=175 VAF=109.4 IKF=0.8 ISE=7.4E-15 
+ NE=1.3 BR=20.5 NR=0.974 VAR=14.25 IKR=0.1 ISC=3.16E-13 NC=1.2 RB=1.1 
+ RE=0.1259 RC=0.0539 CJE=6.3E-11 TF=7.5E-10 CJC=1.58E-11 VJC=0.505 
+ MJC=0.39 TR=8.5E-8 )

*FCX458 ZETEX Spice model   Last revision 19/3/92   High Voltage
.MODEL FCX458 NPN(IS=5.33E-14 BF=190 NF=0.992 VAF=1050 IKF=0.075 
+ ISE=2.1E-14 NE=1.385 BR=16.3 NR=1.05 VAR=99 IKR=1.8 ISC=6.42E-12 NC=1.25 
+ RB=0.5 RE=0.224 RC=0.134 CJE=1.22E-10 TF=1.66E-9 CJC=8.5E-12 VJC=0.4332 
+ MJC=0.3966 TR=8E-6 )

*FCX649 ZETEX Spice model   Last revision  17/7/90   Medium Power
.MODEL FCX649 NPN(IS=3E-13 BF=225 VAF=80 IKF=2.8 ISE=1.1E-13 NE=1.37 
+ BR=110 NR=0.972 VAR=28 IKR=0.8 ISC=6.5E-13 NC=1.372 RB=0.3 RE=0.063 
+ RC=0.07 CJE=3.25E-10 TF=1E-9 CJC=7E-11 TR=1E-8 )

*FMMT918 ZETEX Spice model   Last revision 9/90   VHF/RF
.MODEL FMMT918 NPN(IS=1.73E-13 BF=200 VAF=90 IKF=0.0088 ISE=2.41E-10 
+ NE=1.701 BR=3.124 NR=0.9705 VAR=9.7 IKR=0.02 ISC=8.31E-13 NC=1.112 
+ RB=17 RE=2.13 RC=30 CJE=2.27E-12 TF=2E-10 CJC=1.2E-12 VJC=0.415 MJC=0.145 
+ TR=1E-9 )

*FMMTA20 ZETEX Spice model     Last revision  4/90   General Purpose
.MODEL FMMTA20 NPN(IS=1.8E-14 BF=400 NF=0.9955 VAF=80 IKF=0.14 ISE=5E-14 
+ NE=1.46 BR=35.5 NR=1.005 VAR=12.5 IKR=0.03 ISC=1.72E-13 NC=1.27 RB=0.56 
+ RE=0.6 RC=0.25 CJE=1.3E-11 TF=6.4E-10 CJC=4E-12 VJC=0.54 TR=5.072E-8 )

*FZT649 ZETEX Spice model   Last revision  17/7/90   Medium Power
.MODEL FZT649 NPN(IS=3E-13 BF=225 VAF=80 IKF=2.8 ISE=1.1E-13 NE=1.37 
+ BR=110 NR=0.972 VAR=28 IKR=0.8 ISC=6.5E-13 NC=1.372 RB=0.3 RE=0.063 
+ RC=0.07 CJE=3.25E-10 TF=1E-9 CJC=7E-11 TR=1E-8 )

*FZT651 ZETEX Spice model   Last revision  16/1/91   Medium Power
.MODEL FZT651 NPN(IS=2.22E-13 BF=230 NF=0.9956 VAF=100 IKF=2 ISE=2.9E-14 
+ NE=1.35 BR=56 NR=0.995 VAR=30 IKR=1 ISC=2.97E-13 NC=1.321 RB=0.04 
+ RE=0.075 RC=0.069 CJE=3.18E-10 TF=7.7E-10 CJC=5.1E-11 VJC=0.595 MJC=0.42 
+ TR=2.7E-8 )

*FZT657 ZETEX Spice model   Last revision   30/11/90   High Voltage
.MODEL FZT657 NPN(IS=1.88E-13 BF=120 NF=1.003 VAF=1400 IKF=0.22 
+ ISE=2.1E-14 NE=1.28 BR=8.3 NR=1.005 VAR=50 IKR=1.1 ISC=5E-13 NC=1.8 
+ RB=0.1 RE=0.095 RC=0.146 CJE=3.7E-10 TF=1.77E-9 CJC=2.4E-11 VJC=0.525 
+ MJC=0.48 TR=8E-7 )

*FZT658 ZETEX Spice model   Last revision 13/4/92   High Voltage
.MODEL FZT658 NPN(IS=2.3E-13 BF=170 VAF=1367 IKF=0.165 ISE=6.14E-14 
+ NE=1.39 BR=13 NR=1.002 VAR=59 IKR=0.85 ISC=9.19E-15 NC=1.032 RB=0.08 
+ RE=0.136 RC=0.181 CJE=3.3E-10 TF=2.08E-9 CJC=2.25E-11 VJC=0.425 MJC=0.44 
+ TR=2.3E-7 )

*FZT688B ZETEX Spice model   Last revision 8/11/90   Medium Power
.MODEL FZT688B NPN(IS=1.09E-12 BF=1180 NF=0.9935 VAF=25 IKF=5.2 
+ ISE=1.3E-13 NE=1.35 BR=790 NR=0.992 VAR=5 IKR=0.5 ISC=1.74E-13 NC=1.399 
+ RB=0.3 RE=0.036 RC=0.034 CJE=2.8E-10 TF=9.3E-10 CJC=1.04E-10 VJC=0.46 
+ MJC=0.29 TR=1.05E-9 )

*FZT689B ZETEX Spice model   Last revision 11/9/90   Medium Power
.MODEL FZT689B NPN(IS=1.8E-12 BF=1850 NF=0.994 VAF=24 IKF=3.2 ISE=2.18E-13 
+ NE=1.345 BR=370 NR=0.996 VAR=4 IKR=0.8 ISC=3.6E-13 NC=1.26 RB=0.2 
+ RE=0.035 RC=0.036 CJE=2.48E-10 TF=7.2E-10 CJC=7.4E-11 VJC=0.485 MJC=0.35 
+ TR=2.07E-9 )

*FZT690B ZETEX Spice model  Last revision 18/11/90   Medium Power
*Note: This model may be inaccurate for collector currents above 2A.
.MODEL FZT690B NPN(IS=2.505E-12 BF=1360 NF=1.006 VAF=35 IKF=1.3 
+ ISE=2.4E-13 NE=1.38 BR=125 NR=1.001 VAR=8 IKR=1 ISC=4.35E-13 NC=1.213 
+ RB=0.2 RE=0.043 RC=0.04 CJE=2.47E-10 TF=8.51E-10 CJC=5.43E-11 VJC=0.765 
+ MJC=0.475 TR=1.57E-8 )

*FZT692B ZETEX Spice model    Last revision  31/10/90   Medium Power
*Note: This model may be inaccurate for collector currents above 1.5A.
.MODEL FZT692B NPN(IS=1.87E-12 BF=1400 NF=0.9983 VAF=29 IKF=0.73 
+ ISE=2.1E-13 NE=1.378 BR=68 NR=0.997 VAR=12 IKR=0.55 ISC=4.4E-13 NC=1.14 
+ RB=0.2 RE=0.05 RC=0.048 CJE=2.33E-10 TF=7.7E-10 CJC=4.25E-11 VJC=0.625 
+ MJC=0.475 TR=3.9E-8 )

*FZT694B ZETEX Spice model    Last revision  1/11/90   Medium Power
*Note: This model may be inaccurate for collector currents above 0.6A.
.MODEL FZT694B NPN(IS=1.59E-12 BF=1009 NF=1.001 VAF=45 IKF=0.26 
+ ISE=2.53E-13 NE=1.445 BR=40 VAR=30 IKR=1 ISC=3.26E-13 NC=1.075 RB=0.2 
+ RE=0.065 RC=0.075 CJE=2.58E-10 TF=7.63E-10 CJC=3.55E-11 VJC=0.515 
+ MJC=0.465 TR=1.3E-7 )

*FZT696B ZETEX Spice model    Last revision  5/11/90   Medium Power
*Note: This model may be inaccurate for collector currents above 0.25A.
.MODEL FZT696B NPN(IS=9.85E-13 BF=705 NF=0.999 VAF=235 IKF=0.145 
+ ISE=8.1E-14 NE=1.36 BR=20 NR=1.002 VAR=26 IKR=0.8 ISC=6.6E-13 NC=1.15 
+ RB=0.07 RE=0.125 RC=0.098 CJE=2.7E-10 TF=1.301E-9 CJC=2.54E-11 VJC=0.445 
+ MJC=0.47 TR=6.9E-7 )

*MPSA20 ZETEX Spice model     Last revision  4/90   General Purpose
.MODEL MPSA20 NPN(IS=1.8E-14 BF=400 NF=0.9955 VAF=80 IKF=0.14 ISE=5E-14 
+ NE=1.46 BR=35.5 NR=1.005 VAR=12.5 IKR=0.03 ISC=1.72E-13 NC=1.27 RB=0.56 
+ RE=0.6 RC=0.25 CJE=1.3E-11 TF=6.4E-10 CJC=4E-12 VJC=0.54 TR=5.072E-8 )

*ZTX107 ZETEX Spice model     Last revision  4/90   General Purpose
.MODEL ZTX107 NPN(IS=1.8E-14 BF=400 NF=0.9955 VAF=80 IKF=0.14 ISE=5E-14 
+ NE=1.46 BR=35.5 NR=1.005 VAR=12.5 IKR=0.03 ISC=1.72E-13 NC=1.27 RB=0.56 
+ RE=0.6 RC=0.25 CJE=1.3E-11 TF=6.4E-10 CJC=4E-12 VJC=0.54 TR=5.072E-8 )

*ZTX107B ZETEX Spice model     Last revision  4/90   General Purpose
.MODEL ZTX107B NPN(IS=1.8E-14 BF=400 NF=0.9955 VAF=80 IKF=0.14 ISE=5E-14 
+ NE=1.46 BR=35.5 NR=1.005 VAR=12.5 IKR=0.03 ISC=1.72E-13 NC=1.27 RB=0.56 
+ RE=0.6 RC=0.25 CJE=1.3E-11 TF=6.4E-10 CJC=4E-12 VJC=0.54 TR=5.072E-8 )

*ZTX108 ZETEX Spice model     Last revision  4/90   General Purpose
.MODEL ZTX108 NPN(IS=1.8E-14 BF=400 NF=0.9955 VAF=80 IKF=0.14 ISE=5E-14 
+ NE=1.46 BR=35.5 NR=1.005 VAR=12.5 IKR=0.03 ISC=1.72E-13 NC=1.27 RB=0.56 
+ RE=0.6 RC=0.25 CJE=1.3E-11 TF=6.4E-10 CJC=4E-12 VJC=0.54 TR=5.072E-8 )

*ZTX108B ZETEX Spice model     Last revision  4/90   General Purpose
.MODEL ZTX108B NPN(IS=1.8E-14 BF=400 NF=0.9955 VAF=80 IKF=0.14 ISE=5E-14 
+ NE=1.46 BR=35.5 NR=1.005 VAR=12.5 IKR=0.03 ISC=1.72E-13 NC=1.27 RB=0.56 
+ RE=0.6 RC=0.25 CJE=1.3E-11 TF=6.4E-10 CJC=4E-12 VJC=0.54 TR=5.072E-8 )

*ZTX109 ZETEX Spice model     Last revision  4/90   Low Noise
.MODEL ZTX109 NPN(IS=1.8E-14 BF=400 NF=0.9955 VAF=80 IKF=0.14 ISE=5E-14 
+ NE=1.46 BR=35.5 NR=1.005 VAR=12.5 IKR=0.03 ISC=1.72E-13 NC=1.27 RB=0.56 
+ RE=0.6 RC=0.25 CJE=1.3E-11 TF=6.4E-10 CJC=4E-12 VJC=0.54 TR=5.072E-8 )

*ZTX109B ZETEX Spice model     Last revision  4/90   Low Noise
.MODEL ZTX109B NPN(IS=1.8E-14 BF=400 NF=0.9955 VAF=80 IKF=0.14 ISE=5E-14 
+ NE=1.46 BR=35.5 NR=1.005 VAR=12.5 IKR=0.03 ISC=1.72E-13 NC=1.27 RB=0.56 
+ RE=0.6 RC=0.25 CJE=1.3E-11 TF=6.4E-10 CJC=4E-12 VJC=0.54 TR=5.072E-8 )

*ZTX237 ZETEX Spice model     Last revision  4/90   General Purpose
.MODEL ZTX237 NPN(IS=1.8E-14 BF=400 NF=0.9955 VAF=80 IKF=0.14 ISE=5E-14 
+ NE=1.46 BR=35.5 NR=1.005 VAR=12.5 IKR=0.03 ISC=1.72E-13 NC=1.27 RB=0.56 
+ RE=0.6 RC=0.25 CJE=1.3E-11 TF=6.4E-10 CJC=4E-12 VJC=0.54 TR=5.072E-8 )

*ZTX237B ZETEX Spice model     Last revision  4/90   General Purpose
.MODEL ZTX237B NPN(IS=1.8E-14 BF=400 NF=0.9955 VAF=80 IKF=0.14 ISE=5E-14 
+ NE=1.46 BR=35.5 NR=1.005 VAR=12.5 IKR=0.03 ISC=1.72E-13 NC=1.27 RB=0.56 
+ RE=0.6 RC=0.25 CJE=1.3E-11 TF=6.4E-10 CJC=4E-12 VJC=0.54 TR=5.072E-8 )

*ZTX238 ZETEX Spice model     Last revision  4/90   General Purpose
.MODEL ZTX238 NPN(IS=1.8E-14 BF=400 NF=0.9955 VAF=80 IKF=0.14 ISE=5E-14 
+ NE=1.46 BR=35.5 NR=1.005 VAR=12.5 IKR=0.03 ISC=1.72E-13 NC=1.27 RB=0.56 
+ RE=0.6 RC=0.25 CJE=1.3E-11 TF=6.4E-10 CJC=4E-12 VJC=0.54 TR=5.072E-8 )

*ZTX238B ZETEX Spice model     Last revision  4/90   General Purpose
.MODEL ZTX238B NPN(IS=1.8E-14 BF=400 NF=0.9955 VAF=80 IKF=0.14 ISE=5E-14 
+ NE=1.46 BR=35.5 NR=1.005 VAR=12.5 IKR=0.03 ISC=1.72E-13 NC=1.27 RB=0.56 
+ RE=0.6 RC=0.25 CJE=1.3E-11 TF=6.4E-10 CJC=4E-12 VJC=0.54 TR=5.072E-8 )

*ZTX239 ZETEX Spice model     Last revision  4/90   General Purpose
.MODEL ZTX239 NPN(IS=1.8E-14 BF=400 NF=0.9955 VAF=80 IKF=0.14 ISE=5E-14 
+ NE=1.46 BR=35.5 NR=1.005 VAR=12.5 IKR=0.03 ISC=1.72E-13 NC=1.27 RB=0.56 
+ RE=0.6 RC=0.25 CJE=1.3E-11 TF=6.4E-10 CJC=4E-12 VJC=0.54 TR=5.072E-8 )

*ZTX239B ZETEX Spice model     Last revision  4/90   General Purpose
.MODEL ZTX239B NPN(IS=1.8E-14 BF=400 NF=0.9955 VAF=80 IKF=0.14 ISE=5E-14 
+ NE=1.46 BR=35.5 NR=1.005 VAR=12.5 IKR=0.03 ISC=1.72E-13 NC=1.27 RB=0.56 
+ RE=0.6 RC=0.25 CJE=1.3E-11 TF=6.4E-10 CJC=4E-12 VJC=0.54 TR=5.072E-8 )

*ZTX320 ZETEX Spice model   Last revision 9/90   High Frequency/RF
.MODEL ZTX320 NPN(IS=1.73E-13 BF=200 VAF=90 IKF=0.0088 ISE=2.41E-10 
+ NE=1.701 BR=3.124 NR=0.9705 VAR=9.7 IKR=0.02 ISC=8.31E-13 NC=1.112 
+ RB=17 RE=2.13 RC=30 CJE=2.27E-12 TF=2E-10 CJC=1.2E-12 VJC=0.415 MJC=0.145 
+ TR=1E-9 )

*ZTX321 ZETEX Spice model   Last revision 9/90   High Frequency/RF
.MODEL ZTX321 NPN(IS=1.73E-13 BF=200 VAF=90 IKF=0.0088 ISE=2.41E-10 
+ NE=1.701 BR=3.124 NR=0.9705 VAR=9.7 IKR=0.02 ISC=8.31E-13 NC=1.112 
+ RB=17 RE=2.13 RC=30 CJE=2.27E-12 TF=2E-10 CJC=1.2E-12 VJC=0.415 MJC=0.145 
+ TR=1E-9 )

*ZTX337A ZETEX Spice model     Last revision  4/90   Medium Power
.MODEL ZTX337A NPN(IS=3.94E-14 BF=175 VAF=109.4 IKF=0.8 ISE=7.4E-15 
+ NE=1.3 BR=20.5 NR=0.974 VAR=14.25 IKR=0.1 ISC=3.16E-13 NC=1.2 RB=1.1 
+ RE=0.1259 RC=0.0539 CJE=6.3E-11 TF=7.5E-10 CJC=1.58E-11 VJC=0.505 
+ MJC=0.39 TR=8.5E-8 )

*ZTX338A ZETEX Spice model     Last revision  4/90   Medium Power
.MODEL ZTX338A NPN(IS=3.94E-14 BF=175 VAF=109.4 IKF=0.8 ISE=7.4E-15 
+ NE=1.3 BR=20.5 NR=0.974 VAR=14.25 IKR=0.1 ISC=3.16E-13 NC=1.2 RB=1.1 
+ RE=0.1259 RC=0.0539 CJE=6.3E-11 TF=7.5E-10 CJC=1.58E-11 VJC=0.505 
+ MJC=0.39 TR=8.5E-8 )

*ZTX450 ZETEX Spice model     Last revision  4/90   Medium Power
.MODEL ZTX450 NPN(IS=3.94E-14 BF=175 VAF=109.4 IKF=0.8 ISE=7.4E-15 
+ NE=1.3 BR=20.5 NR=0.974 VAR=14.25 IKR=0.1 ISC=3.16E-13 NC=1.2 RB=1.1 
+ RE=0.1259 RC=0.0539 CJE=6.3E-11 TF=7.5E-10 CJC=1.58E-11 VJC=0.505 
+ MJC=0.39 TR=8.5E-8 )

*ZTX454 ZETEX Spice model  Last revision   7/8/90   Medium Power/High Voltage
.MODEL ZTX454 NPN(IS=5.6E-14 BF=260 NF=0.992 VAF=660 IKF=0.155 ISE=3.1E-14 
+ NE=1.25 BR=24 NR=0.999 VAR=6 IKR=0.114 ISC=1.41E-13 NC=1.13 RB=1.1 
+ RE=0.161 RC=0.0339 CJE=5.35E-11 TF=7.5E-10 CJC=1.16E-11 VJC=0.505 
+ MJC=0.455 TR=1E-7 )

*ZTX455 ZETEX Spice model  Last revision   7/8/90   Medium Power/High Voltage
.MODEL ZTX455 NPN(IS=5.6E-14 BF=260 NF=0.992 VAF=660 IKF=0.155 ISE=3.1E-14 
+ NE=1.25 BR=24 NR=0.999 VAR=6 IKR=0.114 ISC=1.41E-13 NC=1.13 RB=1.1 
+ RE=0.161 RC=0.0339 CJE=5.35E-11 TF=7.5E-10 CJC=1.16E-11 VJC=0.505 
+ MJC=0.455 TR=1E-7 )

*ZTX458 ZETEX Spice model   Last revision 19/3/92   High Voltage
.MODEL ZTX458 NPN(IS=5.33E-14 BF=190 NF=0.992 VAF=1050 IKF=0.075 
+ ISE=2.1E-14 NE=1.385 BR=16.3 NR=1.05 VAR=99 IKR=1.8 ISC=6.42E-12 NC=1.25 
+ RB=0.5 RE=0.224 RC=0.134 CJE=1.22E-10 TF=1.66E-9 CJC=8.5E-12 VJC=0.4332 
+ MJC=0.3966 TR=8E-6 )

*ZTX649 ZETEX Spice model   Last revision  17/7/90   Super E-line
.MODEL ZTX649 NPN(IS=3E-13 BF=225 VAF=80 IKF=2.8 ISE=1.1E-13 NE=1.37 
+ BR=110 NR=0.972 VAR=28 IKR=0.8 ISC=6.5E-13 NC=1.372 RB=0.3 RE=0.063 
+ RC=0.07 CJE=3.25E-10 TF=1E-9 CJC=7E-11 TR=1E-8 )

*ZTX650 ZETEX Spice model   Last revision  16/1/91   Super E-line
.MODEL ZTX650 NPN(IS=2.22E-13 BF=230 NF=0.9956 VAF=100 IKF=2 ISE=2.9E-14 
+ NE=1.35 BR=56 NR=0.995 VAR=30 IKR=1 ISC=2.97E-13 NC=1.321 RB=0.04 
+ RE=0.075 RC=0.069 CJE=3.18E-10 TF=7.7E-10 CJC=5.1E-11 VJC=0.595 MJC=0.42 
+ TR=2.7E-8 )

*ZTX651 ZETEX Spice model   Last revision  16/1/91   Super E-line
.MODEL ZTX651 NPN(IS=2.22E-13 BF=230 NF=0.9956 VAF=100 IKF=2 ISE=2.9E-14 
+ NE=1.35 BR=56 NR=0.995 VAR=30 IKR=1 ISC=2.97E-13 NC=1.321 RB=0.04 
+ RE=0.075 RC=0.069 CJE=3.18E-10 TF=7.7E-10 CJC=5.1E-11 VJC=0.595 MJC=0.42 
+ TR=2.7E-8 )

*ZTX657 ZETEX Spice model   Last revision   30/11/90   High Voltage
.MODEL ZTX657 NPN(IS=1.88E-13 BF=120 NF=1.003 VAF=1400 IKF=0.22 
+ ISE=2.1E-14 NE=1.28 BR=8.3 NR=1.005 VAR=50 IKR=1.1 ISC=5E-13 NC=1.8 
+ RB=0.1 RE=0.095 RC=0.146 CJE=3.7E-10 TF=1.77E-9 CJC=2.4E-11 VJC=0.525 
+ MJC=0.48 TR=8E-7 )

*ZTX658 ZETEX Spice model   Last revision 13/4/92   High Voltage
.MODEL ZTX658 NPN(IS=2.3E-13 BF=170 VAF=1367 IKF=0.165 ISE=6.14E-14 
+ NE=1.39 BR=13 NR=1.002 VAR=59 IKR=0.85 ISC=9.19E-15 NC=1.032 RB=0.08 
+ RE=0.136 RC=0.181 CJE=3.3E-10 TF=2.08E-9 CJC=2.25E-11 VJC=0.425 MJC=0.44 
+ TR=2.3E-7 )

*ZTX688B ZETEX Spice model   Last revision 8/11/90
.MODEL ZTX688B NPN(IS=1.09E-12 BF=1180 NF=0.9935 VAF=25 IKF=5.2 
+ ISE=1.3E-13 NE=1.35 BR=790 NR=0.992 VAR=5 IKR=0.5 ISC=1.74E-13 NC=1.399 
+ RB=0.3 RE=0.036 RC=0.034 CJE=2.8E-10 TF=9.3E-10 CJC=1.04E-10 VJC=0.46 
+ MJC=0.29 TR=1.05E-9 )

*ZTX689B ZETEX Spice model   Last revision 11/9/90   Medium Power/High Gain
.MODEL ZTX689B NPN(IS=1.8E-12 BF=1850 NF=0.994 VAF=24 IKF=3.2 ISE=2.18E-13 
+ NE=1.345 BR=370 NR=0.996 VAR=4 IKR=0.8 ISC=3.6E-13 NC=1.26 RB=0.2 
+ RE=0.035 RC=0.036 CJE=2.48E-10 TF=7.2E-10 CJC=7.4E-11 VJC=0.485 MJC=0.35 
+ TR=2.07E-9 )

*ZTX690B ZETEX Spice model  Last revision 18/11/90   Medium Power/High Gain
*Note: This model may be inaccurate for collector currents above 2A.
.MODEL ZTX690B NPN(IS=2.505E-12 BF=1360 NF=1.006 VAF=35 IKF=1.3 
+ ISE=2.4E-13 NE=1.38 BR=125 NR=1.001 VAR=8 IKR=1 ISC=4.35E-13 NC=1.213 
+ RB=0.2 RE=0.043 RC=0.04 CJE=2.47E-10 TF=8.51E-10 CJC=5.43E-11 VJC=0.765 
+ MJC=0.475 TR=1.57E-8 )

*ZTX692B ZETEX Spice model    Last revision  31/10/90   Medium Power/High Gain
*Note: This model may be inaccurate for collector currents above 1.5A.
.MODEL ZTX692B NPN(IS=1.87E-12 BF=1400 NF=0.9983 VAF=29 IKF=0.73 
+ ISE=2.1E-13 NE=1.378 BR=68 NR=0.997 VAR=12 IKR=0.55 ISC=4.4E-13 NC=1.14 
+ RB=0.2 RE=0.05 RC=0.048 CJE=2.33E-10 TF=7.7E-10 CJC=4.25E-11 VJC=0.625 
+ MJC=0.475 TR=3.9E-8 )

*ZTX694B ZETEX Spice model    Last revision  1/11/90   Medium Power/High Gain
*Note: This model may be inaccurate for collector currents above 0.6A.
.MODEL ZTX694B NPN(IS=1.59E-12 BF=1009 NF=1.001 VAF=45 IKF=0.26 
+ ISE=2.53E-13 NE=1.445 BR=40 VAR=30 IKR=1 ISC=3.26E-13 NC=1.075 RB=0.2 
+ RE=0.065 RC=0.075 CJE=2.58E-10 TF=7.63E-10 CJC=3.55E-11 VJC=0.515 
+ MJC=0.465 TR=1.3E-7 )

*ZTX696B ZETEX Spice model    Last revision  5/11/90
*Note: This model may be inaccurate for collector currents above 0.25A.
.MODEL ZTX696B NPN(IS=9.85E-13 BF=705 NF=0.999 VAF=235 IKF=0.145 
+ ISE=8.1E-14 NE=1.36 BR=20 NR=1.002 VAR=26 IKR=0.8 ISC=6.6E-13 NC=1.15 
+ RB=0.07 RE=0.125 RC=0.098 CJE=2.7E-10 TF=1.301E-9 CJC=2.54E-11 VJC=0.445 
+ MJC=0.47 TR=6.9E-7 )

*2N6727 ZETEX Spice model   Last revision  23/1/91   Medium Power
.MODEL 2N6727 PNP(IS=2.72E-13 BF=170 NF=1.004 VAF=70 IKF=2.75 ISE=1E-13 
+ NE=1.535 BR=23 NR=1.005 VAR=40 IKR=0.55 ISC=5.15E-14 NC=1.13 RB=0.07 
+ RE=0.065 RC=0.085 CJE=3.6E-10 TF=9.4E-10 CJC=9E-11 VJC=0.705 MJC=0.46 
+ TR=6E-8 )

*2SA1213 ZETEX Spice model       Last revision  17/7/90   Medium Power
.MODEL 2SA1213 PNP IS =2.6E-13 BF =210 VAF=27 IKF=7 ISE=1.2E-13 NE =1.43 BR =70
+VAR=14 IKR=.6 ISC=12.04E-13 NC =1.4474 NF =.999 NR =.982 RB =.3 RE =.065
+RC =.04 CJE=410E-12 TF =.65E-9 CJC=140E-12 TR =12E-9 MJC=.35 VJC=.305

*BC177AP ZETEX Spice model    Last revision  4/90   General Purpose
.MODEL BC177AP PNP(IS=1.15E-14 BF=330 NF=0.9872 VAF=84.56 IKF=0.1 
+ ISE=5E-14 NE=1.4 BR=13 NR=0.996 VAR=8.15 IKR=0.012 ISC=1.43E-14 NC=1.1 
+ RB=0.2 RE=0.4 RC=0.95 CJE=1.6E-11 TF=4.93E-10 CJC=1.05E-11 VJC=0.565 
+ MJC=0.415 TR=7.355E-8 )

*BC178AP ZETEX Spice model    Last revision  4/90   General Purpose
.MODEL BC178AP PNP(IS=1.15E-14 BF=330 NF=0.9872 VAF=84.56 IKF=0.1 
+ ISE=5E-14 NE=1.4 BR=13 NR=0.996 VAR=8.15 IKR=0.012 ISC=1.43E-14 NC=1.1 
+ RB=0.2 RE=0.4 RC=0.95 CJE=1.6E-11 TF=4.93E-10 CJC=1.05E-11 VJC=0.565 
+ MJC=0.415 TR=7.355E-8 )

*BC212AP ZETEX Spice model    Last revision  4/90   General Purpose
.MODEL BC212AP PNP(IS=1.15E-14 BF=330 NF=0.9872 VAF=84.56 IKF=0.1 
+ ISE=5E-14 NE=1.4 BR=13 NR=0.996 VAR=8.15 IKR=0.012 ISC=1.43E-14 NC=1.1 
+ RB=0.2 RE=0.4 RC=0.95 CJE=1.6E-11 TF=4.93E-10 CJC=1.05E-11 VJC=0.565 
+ MJC=0.415 TR=7.355E-8 )

*BC213AP ZETEX Spice model    Last revision  4/90   General Purpose
.MODEL BC213AP PNP(IS=1.15E-14 BF=330 NF=0.9872 VAF=84.56 IKF=0.1 
+ ISE=5E-14 NE=1.4 BR=13 NR=0.996 VAR=8.15 IKR=0.012 ISC=1.43E-14 NC=1.1 
+ RB=0.2 RE=0.4 RC=0.95 CJE=1.6E-11 TF=4.93E-10 CJC=1.05E-11 VJC=0.565 
+ MJC=0.415 TR=7.355E-8 )

*BC307AP ZETEX Spice model    Last revision  4/90   General Purpose
.MODEL BC307AP PNP(IS=1.15E-14 BF=330 NF=0.9872 VAF=84.56 IKF=0.1 
+ ISE=5E-14 NE=1.4 BR=13 NR=0.996 VAR=8.15 IKR=0.012 ISC=1.43E-14 NC=1.1 
+ RB=0.2 RE=0.4 RC=0.95 CJE=1.6E-11 TF=4.93E-10 CJC=1.05E-11 VJC=0.565 
+ MJC=0.415 TR=7.355E-8 )

*BC308AP ZETEX Spice model    Last revision  4/90   General Purpose
.MODEL BC308AP PNP(IS=1.15E-14 BF=330 NF=0.9872 VAF=84.56 IKF=0.1 
+ ISE=5E-14 NE=1.4 BR=13 NR=0.996 VAR=8.15 IKR=0.012 ISC=1.43E-14 NC=1.1 
+ RB=0.2 RE=0.4 RC=0.95 CJE=1.6E-11 TF=4.93E-10 CJC=1.05E-11 VJC=0.565 
+ MJC=0.415 TR=7.355E-8 )

*BC415AP ZETEX Spice model    Last revision  4/90   Low Noise
.MODEL BC415AP PNP(IS=1.15E-14 BF=330 NF=0.9872 VAF=84.56 IKF=0.1 
+ ISE=5E-14 NE=1.4 BR=13 NR=0.996 VAR=8.15 IKR=0.012 ISC=1.43E-14 NC=1.1 